20055139
  -OEChem-02172602473D

 49 50  0     1  0  0  0  0  0999 V2000
   -2.7593    1.1748   -0.5854 O   0  0  0  0  0  0  0  0  0  0  0  0
    1.6475   -2.7568    1.5104 O   0  0  0  0  0  0  0  0  0  0  0  0
   -3.2892   -1.7288   -0.4435 O   0  0  0  0  0  0  0  0  0  0  0  0
    1.1439   -1.4693    3.3612 O   0  0  0  0  0  0  0  0  0  0  0  0
   -2.2963   -1.8046   -2.5280 O   0  0  0  0  0  0  0  0  0  0  0  0
    2.2863    1.5637   -2.2707 O   0  0  0  0  0  0  0  0  0  0  0  0
   -0.1805    3.3030    1.9424 O   0  0  0  0  0  0  0  0  0  0  0  0
   -1.6439    3.4046    0.0311 O   0  0  0  0  0  0  0  0  0  0  0  0
    2.9830   -0.5921   -2.7462 O   0  0  0  0  0  0  0  0  0  0  0  0
    0.4997   -0.7410    1.1482 C   0  0  2  0  0  0  0  0  0  0  0  0
   -1.2030   -0.6803   -0.6889 C   0  0  2  0  0  0  0  0  0  0  0  0
   -0.6263   -1.5260    0.4473 C   0  0  0  0  0  0  0  0  0  0  0  0
   -0.1404    0.4647    1.8681 C   0  0  0  0  0  0  0  0  0  0  0  0
   -0.0977   -0.4152   -1.7333 C   0  0  0  0  0  0  0  0  0  0  0  0
    1.5798   -0.2812    0.1582 C   0  0  0  0  0  0  0  0  0  0  0  0
   -1.7384    0.6523   -0.1393 C   0  0  0  0  0  0  0  0  0  0  0  0
    1.2781   -0.1685   -1.1551 C   0  0  0  0  0  0  0  0  0  0  0  0
   -0.9328    1.3292    0.9264 C   0  0  0  0  0  0  0  0  0  0  0  0
    1.1241   -1.6754    2.1553 C   0  0  0  0  0  0  0  0  0  0  0  0
   -2.3069   -1.4670   -1.3521 C   0  0  0  0  0  0  0  0  0  0  0  0
    2.9231    0.0789    0.7512 C   0  0  0  0  0  0  0  0  0  0  0  0
    2.2901    0.2143   -2.1552 C   0  0  0  0  0  0  0  0  0  0  0  0
   -0.9253    2.6681    0.9590 C   0  0  0  0  0  0  0  0  0  0  0  0
    2.2754   -3.7297    2.3513 C   0  0  0  0  0  0  0  0  0  0  0  0
   -4.4053   -2.4730   -0.9421 C   0  0  0  0  0  0  0  0  0  0  0  0
    3.2239    2.0935   -3.2136 C   0  0  0  0  0  0  0  0  0  0  0  0
   -0.7096    4.5621    2.3433 C   0  0  0  0  0  0  0  0  0  0  0  0
   -1.3977   -1.7918    1.1844 H   0  0  0  0  0  0  0  0  0  0  0  0
   -0.2707   -2.4842    0.0421 H   0  0  0  0  0  0  0  0  0  0  0  0
   -0.8283    0.1102    2.6489 H   0  0  0  0  0  0  0  0  0  0  0  0
    0.6305    1.0405    2.3943 H   0  0  0  0  0  0  0  0  0  0  0  0
    0.0093   -1.2722   -2.4121 H   0  0  0  0  0  0  0  0  0  0  0  0
   -0.3836    0.4423   -2.3578 H   0  0  0  0  0  0  0  0  0  0  0  0
    2.8032    0.7481    1.6087 H   0  0  0  0  0  0  0  0  0  0  0  0
    3.4603   -0.8162    1.0786 H   0  0  0  0  0  0  0  0  0  0  0  0
    3.5717    0.5993    0.0404 H   0  0  0  0  0  0  0  0  0  0  0  0
    1.5496   -4.1451    3.0568 H   0  0  0  0  0  0  0  0  0  0  0  0
    2.6496   -4.5370    1.7162 H   0  0  0  0  0  0  0  0  0  0  0  0
    3.1198   -3.2812    2.8834 H   0  0  0  0  0  0  0  0  0  0  0  0
   -1.9771    2.8366   -0.6796 H   0  0  0  0  0  0  0  0  0  0  0  0
   -4.9023   -1.9182   -1.7436 H   0  0  0  0  0  0  0  0  0  0  0  0
   -4.0776   -3.4550   -1.2964 H   0  0  0  0  0  0  0  0  0  0  0  0
   -5.1135   -2.6142   -0.1214 H   0  0  0  0  0  0  0  0  0  0  0  0
    3.1244    3.1822   -3.2165 H   0  0  0  0  0  0  0  0  0  0  0  0
    3.0048    1.7181   -4.2178 H   0  0  0  0  0  0  0  0  0  0  0  0
    4.2452    1.8350   -2.9180 H   0  0  0  0  0  0  0  0  0  0  0  0
   -0.1197    4.9242    3.1901 H   0  0  0  0  0  0  0  0  0  0  0  0
   -1.7514    4.4636    2.6665 H   0  0  0  0  0  0  0  0  0  0  0  0
   -0.6272    5.2927    1.5320 H   0  0  0  0  0  0  0  0  0  0  0  0
  1 16  2  0  0  0  0
  2 19  1  0  0  0  0
  2 24  1  0  0  0  0
  3 20  1  0  0  0  0
  3 25  1  0  0  0  0
  4 19  2  0  0  0  0
  5 20  2  0  0  0  0
  6 22  1  0  0  0  0
  6 26  1  0  0  0  0
  7 23  1  0  0  0  0
  7 27  1  0  0  0  0
  8 23  1  0  0  0  0
  8 40  1  0  0  0  0
  9 22  2  0  0  0  0
 10 12  1  0  0  0  0
 10 13  1  0  0  0  0
 10 15  1  0  0  0  0
 10 19  1  0  0  0  0
 11 12  1  0  0  0  0
 11 14  1  0  0  0  0
 11 16  1  0  0  0  0
 11 20  1  0  0  0  0
 12 28  1  0  0  0  0
 12 29  1  0  0  0  0
 13 18  1  0  0  0  0
 13 30  1  0  0  0  0
 13 31  1  0  0  0  0
 14 17  1  0  0  0  0
 14 32  1  0  0  0  0
 14 33  1  0  0  0  0
 15 17  2  0  0  0  0
 15 21  1  0  0  0  0
 16 18  1  0  0  0  0
 17 22  1  0  0  0  0
 18 23  2  0  0  0  0
 21 34  1  0  0  0  0
 21 35  1  0  0  0  0
 21 36  1  0  0  0  0
 24 37  1  0  0  0  0
 24 38  1  0  0  0  0
 24 39  1  0  0  0  0
 25 41  1  0  0  0  0
 25 42  1  0  0  0  0
 25 43  1  0  0  0  0
 26 44  1  0  0  0  0
 26 45  1  0  0  0  0
 26 46  1  0  0  0  0
 27 47  1  0  0  0  0
 27 48  1  0  0  0  0
 27 49  1  0  0  0  0
M  END
> <PUBCHEM_COMPOUND_CID>
20055139

> <PUBCHEM_CONFORMER_RMSD>
0.8

> <PUBCHEM_CONFORMER_DIVERSEORDER>
1
12
10
7
9
13
6
14
8
3
5
11
15
4
2

> <PUBCHEM_MMFF94_PARTIAL_CHARGES>
27
1 -0.57
10 0.2
11 0.12
13 0.14
14 0.14
15 -0.28
16 0.49
17 -0.12
18 -0.12
19 0.66
2 -0.43
20 0.66
21 0.14
22 0.71
23 0.15
24 0.28
25 0.28
26 0.28
27 0.28
3 -0.43
4 -0.57
40 0.45
5 -0.57
6 -0.43
7 -0.36
8 -0.53
9 -0.57

> <PUBCHEM_EFFECTIVE_ROTOR_COUNT>
7.6

> <PUBCHEM_PHARMACOPHORE_FEATURES>
8
1 1 acceptor
1 4 acceptor
1 5 acceptor
1 7 acceptor
1 8 donor
1 9 acceptor
6 10 11 12 13 16 18 rings
6 10 11 12 14 15 17 rings

> <PUBCHEM_HEAVY_ATOM_COUNT>
27

> <PUBCHEM_ATOM_DEF_STEREO_COUNT>
2

> <PUBCHEM_ATOM_UDEF_STEREO_COUNT>
0

> <PUBCHEM_BOND_DEF_STEREO_COUNT>
1

> <PUBCHEM_BOND_UDEF_STEREO_COUNT>
0

> <PUBCHEM_ISOTOPIC_ATOM_COUNT>
0

> <PUBCHEM_COMPONENT_COUNT>
1

> <PUBCHEM_CACTVS_TAUTO_COUNT>
3

> <PUBCHEM_CONFORMER_ID>
0132046300000001

> <PUBCHEM_MMFF94_ENERGY>
82.3326

> <PUBCHEM_FEATURE_SELFOVERLAP>
42.011

> <PUBCHEM_SHAPE_FINGERPRINT>
107951 10 16966585639366791104
11578080 2 8352425271738581110
13149001 5 13003430392567881026
14142880 1 10678633289113959352
14787075 74 17830216645708006705
14817 1 12670407798185865328
16945 1 10732174286964287371
17980427 23 8390766238615790860
17980427 26 12903761368807344494
1813 80 11403446047252885858
20600515 1 11645757154206030036
20905425 154 14594153955427437593
21524375 3 11545791898203434197
21756936 100 11765393970663549769
23419403 2 15000548472701858178
23728640 28 15392297301462481664
25222932 49 13204388236199349204
298252 57 17479213801922176452
394222 165 12987487070443984257
469060 322 9788223883505468553
497634 4 11396690218094555393
6992083 37 9545095105047078807
70251023 43 11034046067648552873

> <PUBCHEM_SHAPE_MULTIPOLES>
502.82
4.63
4.42
3.53
3.1
3.49
0.33
-1.85
4.95
-0.68
-4.95
-2.83
-0.58
-1.9

> <PUBCHEM_SHAPE_SELFOVERLAP>
1068.83

> <PUBCHEM_SHAPE_VOLUME>
277.4

> <PUBCHEM_COORDINATE_TYPE>
2
5
10

$$$$
