11394017
  -OEChem-02172602473D

 55 57  0     1  0  0  0  0  0999 V2000
    3.0687   -4.2852    1.3010 O   0  0  0  0  0  0  0  0  0  0  0  0
    3.4400   -2.1925    2.0960 O   0  0  0  0  0  0  0  0  0  0  0  0
    0.1483   -0.9099   -1.1497 N   0  0  0  0  0  0  0  0  0  0  0  0
   -2.7543   -0.5323   -0.9846 C   0  0  0  0  0  0  0  0  0  0  0  0
   -1.8603   -0.5903    0.2587 C   0  0  0  0  0  0  0  0  0  0  0  0
   -2.0879   -1.2910   -2.1372 C   0  0  0  0  0  0  0  0  0  0  0  0
   -0.4379   -0.1229   -0.0566 C   0  0  0  0  0  0  0  0  0  0  0  0
   -0.6577   -0.8009   -2.3730 C   0  0  0  0  0  0  0  0  0  0  0  0
    1.5250   -0.4864   -1.4045 C   0  0  0  0  0  0  0  0  0  0  0  0
    2.5336   -0.9431   -0.3219 C   0  0  2  0  0  0  0  0  0  0  0  0
   -4.1426   -1.0930   -0.6888 C   0  0  0  0  0  0  0  0  0  0  0  0
    3.9726   -0.4337   -0.5851 C   0  0  0  0  0  0  0  0  0  0  0  0
    2.5653   -2.4788   -0.1601 C   0  0  0  0  0  0  0  0  0  0  0  0
   -5.0002   -0.0957    0.0410 C   0  0  0  0  0  0  0  0  0  0  0  0
    4.1928    1.0143   -0.2196 C   0  0  0  0  0  0  0  0  0  0  0  0
   -4.9987   -0.0629    1.4356 C   0  0  0  0  0  0  0  0  0  0  0  0
   -5.7965    0.7970   -0.6766 C   0  0  0  0  0  0  0  0  0  0  0  0
    3.0821   -2.9313    1.1891 C   0  0  0  0  0  0  0  0  0  0  0  0
    3.9729    2.0141   -1.1671 C   0  0  0  0  0  0  0  0  0  0  0  0
    4.6158    1.3528    1.0659 C   0  0  0  0  0  0  0  0  0  0  0  0
   -5.7937    0.8619    2.1125 C   0  0  0  0  0  0  0  0  0  0  0  0
   -6.5914    1.7219    0.0004 C   0  0  0  0  0  0  0  0  0  0  0  0
   -6.5899    1.7543    1.3950 C   0  0  0  0  0  0  0  0  0  0  0  0
    4.1760    3.3521   -0.8295 C   0  0  0  0  0  0  0  0  0  0  0  0
    4.8189    2.6909    1.4035 C   0  0  0  0  0  0  0  0  0  0  0  0
    4.5989    3.6905    0.4557 C   0  0  0  0  0  0  0  0  0  0  0  0
   -2.8420    0.5188   -1.2950 H   0  0  0  0  0  0  0  0  0  0  0  0
   -1.8264   -1.6137    0.6547 H   0  0  0  0  0  0  0  0  0  0  0  0
   -2.2573    0.0492    1.0536 H   0  0  0  0  0  0  0  0  0  0  0  0
   -2.6698   -1.1618   -3.0577 H   0  0  0  0  0  0  0  0  0  0  0  0
   -2.0732   -2.3669   -1.9181 H   0  0  0  0  0  0  0  0  0  0  0  0
   -0.4506    0.9467   -0.3054 H   0  0  0  0  0  0  0  0  0  0  0  0
    0.1432   -0.2345    0.8642 H   0  0  0  0  0  0  0  0  0  0  0  0
   -0.6771    0.2347   -2.7376 H   0  0  0  0  0  0  0  0  0  0  0  0
   -0.2180   -1.4177   -3.1665 H   0  0  0  0  0  0  0  0  0  0  0  0
    1.5645    0.6014   -1.5342 H   0  0  0  0  0  0  0  0  0  0  0  0
    1.8682   -0.9196   -2.3541 H   0  0  0  0  0  0  0  0  0  0  0  0
    2.2180   -0.5119    0.6361 H   0  0  0  0  0  0  0  0  0  0  0  0
   -4.0814   -2.0289   -0.1185 H   0  0  0  0  0  0  0  0  0  0  0  0
   -4.6499   -1.3591   -1.6259 H   0  0  0  0  0  0  0  0  0  0  0  0
    4.2361   -0.5889   -1.6400 H   0  0  0  0  0  0  0  0  0  0  0  0
    4.7030   -1.0310   -0.0238 H   0  0  0  0  0  0  0  0  0  0  0  0
    3.1857   -2.9302   -0.9428 H   0  0  0  0  0  0  0  0  0  0  0  0
    1.5538   -2.8908   -0.2459 H   0  0  0  0  0  0  0  0  0  0  0  0
   -4.3906   -0.7579    2.0085 H   0  0  0  0  0  0  0  0  0  0  0  0
   -5.8048    0.7835   -1.7633 H   0  0  0  0  0  0  0  0  0  0  0  0
    3.6498    1.7648   -2.1742 H   0  0  0  0  0  0  0  0  0  0  0  0
    4.7884    0.5835    1.8137 H   0  0  0  0  0  0  0  0  0  0  0  0
   -5.7941    0.8860    3.1984 H   0  0  0  0  0  0  0  0  0  0  0  0
   -7.2110    2.4173   -0.5581 H   0  0  0  0  0  0  0  0  0  0  0  0
   -7.2090    2.4743    1.9221 H   0  0  0  0  0  0  0  0  0  0  0  0
    4.0063    4.1303   -1.5679 H   0  0  0  0  0  0  0  0  0  0  0  0
    5.1476    2.9547    2.4044 H   0  0  0  0  0  0  0  0  0  0  0  0
    3.3866   -4.5823    2.1803 H   0  0  0  0  0  0  0  0  0  0  0  0
    4.7573    4.7324    0.7187 H   0  0  0  0  0  0  0  0  0  0  0  0
  1 18  1  0  0  0  0
  1 54  1  0  0  0  0
  2 18  2  0  0  0  0
  3  7  1  0  0  0  0
  3  8  1  0  0  0  0
  3  9  1  0  0  0  0
  4  5  1  0  0  0  0
  4  6  1  0  0  0  0
  4 11  1  0  0  0  0
  4 27  1  0  0  0  0
  5  7  1  0  0  0  0
  5 28  1  0  0  0  0
  5 29  1  0  0  0  0
  6  8  1  0  0  0  0
  6 30  1  0  0  0  0
  6 31  1  0  0  0  0
  7 32  1  0  0  0  0
  7 33  1  0  0  0  0
  8 34  1  0  0  0  0
  8 35  1  0  0  0  0
  9 10  1  0  0  0  0
  9 36  1  0  0  0  0
  9 37  1  0  0  0  0
 10 12  1  0  0  0  0
 10 13  1  0  0  0  0
 10 38  1  0  0  0  0
 11 14  1  0  0  0  0
 11 39  1  0  0  0  0
 11 40  1  0  0  0  0
 12 15  1  0  0  0  0
 12 41  1  0  0  0  0
 12 42  1  0  0  0  0
 13 18  1  0  0  0  0
 13 43  1  0  0  0  0
 13 44  1  0  0  0  0
 14 16  2  0  0  0  0
 14 17  1  0  0  0  0
 15 19  2  0  0  0  0
 15 20  1  0  0  0  0
 16 21  1  0  0  0  0
 16 45  1  0  0  0  0
 17 22  2  0  0  0  0
 17 46  1  0  0  0  0
 19 24  1  0  0  0  0
 19 47  1  0  0  0  0
 20 25  2  0  0  0  0
 20 48  1  0  0  0  0
 21 23  2  0  0  0  0
 21 49  1  0  0  0  0
 22 23  1  0  0  0  0
 22 50  1  0  0  0  0
 23 51  1  0  0  0  0
 24 26  2  0  0  0  0
 24 52  1  0  0  0  0
 25 26  1  0  0  0  0
 25 53  1  0  0  0  0
 26 55  1  0  0  0  0
M  END
> <PUBCHEM_COMPOUND_CID>
11394017

> <PUBCHEM_CONFORMER_RMSD>
1

> <PUBCHEM_CONFORMER_DIVERSEORDER>
1
69
185
222
164
41
132
119
220
40
102
165
65
112
187
194
174
80
71
19
104
22
11
26
204
212
118
218
116
192
159
135
167
183
144
84
81
50
126
63
33
209
13
2
129
89
208
72
207
155
103
109
75
133
175
197
143
29
82
51
99
3
14
94
58
178
21
28
154
146
79
219
180
223
93
32
17
52
193
92
88
226
179
48
202
68
85
46
12
140
139
98
39
215
160
205
10
113
37
36
206
158
195
182
60
157
67
117
199
62
145
130
74
86
108
90
173
137
83
44
186
45
24
95
43
181
168
125
5
138
49
203
149
210
131
122
163
31
101
114
34
20
201
127
91
200
42
59
53
87
120
57
121
225
55
166
6
25
77
196
78
176
54
177
191
198
214
123
141
128
96
4
188
35
148
110
184
66
134
221
105
152
213
47
64
216
106
30
107
161
169
76
211
23
27
8
217
124
70
224
100
171
190
97
61
156
18
136
151
7
38
56
170
142
150
153
172
16
111
15
147
9
73
115
189
162

> <PUBCHEM_MMFF94_PARTIAL_CHARGES>
33
1 -0.65
11 0.14
12 0.14
13 0.06
14 -0.14
15 -0.14
16 -0.15
17 -0.15
18 0.66
19 -0.15
2 -0.57
20 -0.15
21 -0.15
22 -0.15
23 -0.15
24 -0.15
25 -0.15
26 -0.15
3 -0.81
45 0.15
46 0.15
47 0.15
48 0.15
49 0.15
50 0.15
51 0.15
52 0.15
53 0.15
54 0.5
55 0.15
7 0.27
8 0.27
9 0.27

> <PUBCHEM_EFFECTIVE_ROTOR_COUNT>
9.2

> <PUBCHEM_PHARMACOPHORE_FEATURES>
7
1 1 acceptor
1 2 acceptor
1 3 cation
3 1 2 18 anion
6 14 16 17 21 22 23 rings
6 15 19 20 24 25 26 rings
6 3 4 5 6 7 8 rings

> <PUBCHEM_HEAVY_ATOM_COUNT>
26

> <PUBCHEM_ATOM_DEF_STEREO_COUNT>
0

> <PUBCHEM_ATOM_UDEF_STEREO_COUNT>
1

> <PUBCHEM_BOND_DEF_STEREO_COUNT>
0

> <PUBCHEM_BOND_UDEF_STEREO_COUNT>
0

> <PUBCHEM_ISOTOPIC_ATOM_COUNT>
0

> <PUBCHEM_COMPONENT_COUNT>
1

> <PUBCHEM_CACTVS_TAUTO_COUNT>
1

> <PUBCHEM_CONFORMER_ID>
00ADDBE100000001

> <PUBCHEM_MMFF94_ENERGY>
53.8471

> <PUBCHEM_FEATURE_SELFOVERLAP>
35.58

> <PUBCHEM_SHAPE_FINGERPRINT>
10554248 39 17916577632193439829
10816530 23 18341054102769751371
11070050 100 18114178687766482946
11112241 14 18260548969948739491
11399510 152 18041862622924126025
11505856 67 17472432422366411828
12342043 65 17096646487532780146
12422481 6 18334296478888869861
12596602 18 18412270545206382347
12661589 4 13695880198559561600
13533116 47 18115592539118346507
13878862 14 18338781330814837341
13955234 65 18261390018919084394
14347329 18 16845584105830994123
14347332 77 10737276961989519231
14739800 52 18343579655324337385
14790565 3 17918281960825927685
15142526 21 18122903389789730776
15348495 7 18113908147829437155
15475509 84 18121495756949949540
15950262 2 17272008959306021460
16992787 43 18408326563318449166
17349148 13 12035718799834745861
1979834 28 17748830738932030342
20511986 3 18060131080784871181
20691028 202 17988935436030074705
21033648 29 17748822987334031021
21421861 104 18337381665655496970
21599406 157 11095584664630557793
21814621 53 17749678359982988689
22122407 14 18342188743266656017
23522609 53 11315166955214313943
268830 7 18341886390311319143
2748736 6 17917710223364514209
2838139 119 17918278628042212253
3178227 256 18113615678227032954
34797466 226 12463273788449125391
5104073 3 18334859416110038355
57634706 229 17902800992200814196
57724786 102 18201723920777888255
633830 44 18269551809954113014
653340 110 17898863610190181154
7970288 3 10738376456248359840

> <PUBCHEM_SHAPE_MULTIPOLES>
518.35
16.86
3.93
2
20.66
0.12
0.09
-13.48
6.06
-7.88
1.57
0.41
0.67
-2.59

> <PUBCHEM_SHAPE_SELFOVERLAP>
1080.883

> <PUBCHEM_SHAPE_VOLUME>
292.4

> <PUBCHEM_COORDINATE_TYPE>
2
5
10

$$$$
