5319827
  -OEChem-02172602373D

 32 34  0     0  0  0  0  0  0999 V2000
    2.9151   -1.8976    0.7630 O   0  0  0  0  0  0  0  0  0  0  0  0
   -1.3651   -1.2125    0.0729 O   0  0  0  0  0  0  0  0  0  0  0  0
    1.8685    2.3140   -0.3325 O   0  0  0  0  0  0  0  0  0  0  0  0
    1.7329   -0.6130    2.2509 O   0  0  0  0  0  0  0  0  0  0  0  0
   -2.9292   -2.8737    0.2675 O   0  0  0  0  0  0  0  0  0  0  0  0
    1.3229   -0.4614   -0.1112 C   0  0  0  0  0  0  0  0  0  0  0  0
    0.2599    0.5401   -0.1294 C   0  0  0  0  0  0  0  0  0  0  0  0
    1.8880   -1.1123   -1.1329 C   0  0  0  0  0  0  0  0  0  0  0  0
   -1.0784    0.1634   -0.0386 C   0  0  0  0  0  0  0  0  0  0  0  0
    2.9297   -2.0495   -0.6565 C   0  0  0  0  0  0  0  0  0  0  0  0
    0.5744    1.8927   -0.2406 C   0  0  0  0  0  0  0  0  0  0  0  0
   -2.1066    1.1022   -0.0560 C   0  0  0  0  0  0  0  0  0  0  0  0
    1.9779   -0.9693    1.1107 C   0  0  0  0  0  0  0  0  0  0  0  0
    1.5898   -1.0258   -2.5898 C   0  0  0  0  0  0  0  0  0  0  0  0
   -0.4439    2.8487   -0.2596 C   0  0  0  0  0  0  0  0  0  0  0  0
   -1.7825    2.4560   -0.1676 C   0  0  0  0  0  0  0  0  0  0  0  0
   -3.4802    0.6391    0.0425 C   0  0  0  0  0  0  0  0  0  0  0  0
   -3.7434   -0.6658    0.1483 C   0  0  0  0  0  0  0  0  0  0  0  0
   -2.6720   -1.6790    0.1691 C   0  0  0  0  0  0  0  0  0  0  0  0
    2.5422    2.6037    0.8899 C   0  0  0  0  0  0  0  0  0  0  0  0
    3.9234   -1.7904   -1.0335 H   0  0  0  0  0  0  0  0  0  0  0  0
    2.6964   -3.0891   -0.9051 H   0  0  0  0  0  0  0  0  0  0  0  0
    0.7936   -0.3070   -2.8055 H   0  0  0  0  0  0  0  0  0  0  0  0
    1.2715   -2.0011   -2.9710 H   0  0  0  0  0  0  0  0  0  0  0  0
    2.4817   -0.7118   -3.1412 H   0  0  0  0  0  0  0  0  0  0  0  0
   -0.2025    3.9049   -0.3468 H   0  0  0  0  0  0  0  0  0  0  0  0
   -2.5598    3.2159   -0.1845 H   0  0  0  0  0  0  0  0  0  0  0  0
   -4.2836    1.3672    0.0291 H   0  0  0  0  0  0  0  0  0  0  0  0
   -4.7661   -1.0191    0.2226 H   0  0  0  0  0  0  0  0  0  0  0  0
    2.4256    3.6671    1.1194 H   0  0  0  0  0  0  0  0  0  0  0  0
    2.1629    2.0101    1.7272 H   0  0  0  0  0  0  0  0  0  0  0  0
    3.6058    2.3878    0.7570 H   0  0  0  0  0  0  0  0  0  0  0  0
  1 10  1  0  0  0  0
  1 13  1  0  0  0  0
  2  9  1  0  0  0  0
  2 19  1  0  0  0  0
  3 11  1  0  0  0  0
  3 20  1  0  0  0  0
  4 13  2  0  0  0  0
  5 19  2  0  0  0  0
  6  7  1  0  0  0  0
  6  8  2  0  0  0  0
  6 13  1  0  0  0  0
  7  9  1  0  0  0  0
  7 11  2  0  0  0  0
  8 10  1  0  0  0  0
  8 14  1  0  0  0  0
  9 12  2  0  0  0  0
 10 21  1  0  0  0  0
 10 22  1  0  0  0  0
 11 15  1  0  0  0  0
 12 16  1  0  0  0  0
 12 17  1  0  0  0  0
 14 23  1  0  0  0  0
 14 24  1  0  0  0  0
 14 25  1  0  0  0  0
 15 16  2  0  0  0  0
 15 26  1  0  0  0  0
 16 27  1  0  0  0  0
 17 18  2  0  0  0  0
 17 28  1  0  0  0  0
 18 19  1  0  0  0  0
 18 29  1  0  0  0  0
 20 30  1  0  0  0  0
 20 31  1  0  0  0  0
 20 32  1  0  0  0  0
M  END
> <PUBCHEM_COMPOUND_CID>
5319827

> <PUBCHEM_CONFORMER_RMSD>
0.6

> <PUBCHEM_CONFORMER_DIVERSEORDER>
1
3
2
4

> <PUBCHEM_MMFF94_PARTIAL_CHARGES>
24
1 -0.43
10 0.42
11 0.08
12 0.03
13 0.71
14 0.14
15 -0.15
16 -0.15
17 -0.18
18 -0.14
19 0.71
2 -0.23
20 0.28
26 0.15
27 0.15
28 0.15
29 0.15
3 -0.36
4 -0.57
5 -0.57
6 -0.01
7 0.03
8 -0.28
9 0.08

> <PUBCHEM_EFFECTIVE_ROTOR_COUNT>
2.4

> <PUBCHEM_PHARMACOPHORE_FEATURES>
6
1 3 acceptor
1 4 acceptor
1 5 acceptor
5 1 6 8 10 13 rings
6 2 9 12 17 18 19 rings
6 7 9 11 12 15 16 rings

> <PUBCHEM_HEAVY_ATOM_COUNT>
20

> <PUBCHEM_ATOM_DEF_STEREO_COUNT>
0

> <PUBCHEM_ATOM_UDEF_STEREO_COUNT>
0

> <PUBCHEM_BOND_DEF_STEREO_COUNT>
0

> <PUBCHEM_BOND_UDEF_STEREO_COUNT>
0

> <PUBCHEM_ISOTOPIC_ATOM_COUNT>
0

> <PUBCHEM_COMPONENT_COUNT>
1

> <PUBCHEM_CACTVS_TAUTO_COUNT>
1

> <PUBCHEM_CONFORMER_ID>
00512C9300000001

> <PUBCHEM_MMFF94_ENERGY>
65.4905

> <PUBCHEM_FEATURE_SELFOVERLAP>
30.476

> <PUBCHEM_SHAPE_FINGERPRINT>
10967382 1 18337674247201435029
11578080 2 17096904916236739884
11582403 64 15893548662802886432
11680986 33 18410574015612133941
12553582 1 18337400344257653863
13083527 12 18194657457971749219
13140716 1 18410579491879871147
13538477 17 17897733050184805598
14178342 30 18195813101044503833
14223421 5 18410568530669969137
14787075 74 18113619023705772178
14790565 3 17691141335250782564
15375462 175 18050017592680889667
16752209 62 18044933472694858133
16945 1 18265895744407144133
19049666 15 17269192761342859398
19591789 44 17834678571020011172
20028762 73 16831230277783596798
20510252 161 17909546160116790696
20600515 1 17835796401110617980
20645477 70 18265611177492168223
20691752 17 17675924326476423689
20905425 154 18339363066775732772
21197605 99 14443491390426405290
21421861 104 18116716416469866659
23184049 29 18408037407773875721
232386 152 18261393291182756806
2334 1 18337675346776281895
23419403 2 17462524495602831062
23557571 272 18056768620341247086
23559900 14 17765151671167378838
2748010 2 18410015468095032829
34934 24 18267018543542816917
43471831 8 18120650490264210976
568465 68 17202190816622839902
5902787 121 18337391547784505147
6138700 20 18337684104890429868
7364860 26 18342740762169501784
74978 22 18408887317577776163
77492 1 17171258208716761838
81228 2 17840318721999044433
84936 31 17132119039479504956

> <PUBCHEM_SHAPE_MULTIPOLES>
382.24
5.32
3.33
1.39
2.43
1.34
0.26
-2.53
-0.47
-0.13
-0.08
-1.43
-0.52
0.69

> <PUBCHEM_SHAPE_SELFOVERLAP>
843.622

> <PUBCHEM_SHAPE_VOLUME>
207.7

> <PUBCHEM_COORDINATE_TYPE>
2
5
10

$$$$
