138634
  -OEChem-02172602383D

 21 22  0     0  0  0  0  0  0999 V2000
   -2.7465    0.0000    0.0001 Cl  0  0  0  0  0  0  0  0  0  0  0  0
    1.6266    0.0000   -0.0001 N   0  0  0  0  0  0  0  0  0  0  0  0
   -0.9699    0.0000    0.0001 C   0  0  0  0  0  0  0  0  0  0  0  0
   -0.4206    1.2471   -0.7126 C   0  0  0  0  0  0  0  0  0  0  0  0
   -0.4203   -0.0064    1.4363 C   0  0  0  0  0  0  0  0  0  0  0  0
   -0.4206   -1.2406   -0.7237 C   0  0  0  0  0  0  0  0  0  0  0  0
    1.1171    1.2059   -0.6886 C   0  0  0  0  0  0  0  0  0  0  0  0
    1.1173   -0.0066    1.3884 C   0  0  0  0  0  0  0  0  0  0  0  0
    1.1170   -1.1993   -0.7001 C   0  0  0  0  0  0  0  0  0  0  0  0
   -0.7716    2.1616   -0.2181 H   0  0  0  0  0  0  0  0  0  0  0  0
   -0.7712    1.2850   -1.7516 H   0  0  0  0  0  0  0  0  0  0  0  0
   -0.7713   -0.8919    1.9810 H   0  0  0  0  0  0  0  0  0  0  0  0
   -0.7708    0.8744    1.9888 H   0  0  0  0  0  0  0  0  0  0  0  0
   -0.7716   -1.2696   -1.7629 H   0  0  0  0  0  0  0  0  0  0  0  0
   -0.7712   -2.1594   -0.2371 H   0  0  0  0  0  0  0  0  0  0  0  0
    1.5078    1.2396   -1.7133 H   0  0  0  0  0  0  0  0  0  0  0  0
    1.5075    2.1056   -0.1965 H   0  0  0  0  0  0  0  0  0  0  0  0
    1.5082    0.8639    1.9300 H   0  0  0  0  0  0  0  0  0  0  0  0
    1.5078   -0.8825    1.9215 H   0  0  0  0  0  0  0  0  0  0  0  0
    1.5078   -2.1036   -0.2169 H   0  0  0  0  0  0  0  0  0  0  0  0
    1.5074   -1.2231   -1.7252 H   0  0  0  0  0  0  0  0  0  0  0  0
  1  3  1  0  0  0  0
  2  7  1  0  0  0  0
  2  8  1  0  0  0  0
  2  9  1  0  0  0  0
  3  4  1  0  0  0  0
  3  5  1  0  0  0  0
  3  6  1  0  0  0  0
  4  7  1  0  0  0  0
  4 10  1  0  0  0  0
  4 11  1  0  0  0  0
  5  8  1  0  0  0  0
  5 12  1  0  0  0  0
  5 13  1  0  0  0  0
  6  9  1  0  0  0  0
  6 14  1  0  0  0  0
  6 15  1  0  0  0  0
  7 16  1  0  0  0  0
  7 17  1  0  0  0  0
  8 18  1  0  0  0  0
  8 19  1  0  0  0  0
  9 20  1  0  0  0  0
  9 21  1  0  0  0  0
M  END
> <PUBCHEM_COMPOUND_CID>
138634

> <PUBCHEM_CONFORMER_RMSD>
0.4

> <PUBCHEM_CONFORMER_DIVERSEORDER>
1

> <PUBCHEM_MMFF94_PARTIAL_CHARGES>
6
1 -0.29
2 -0.81
3 0.29
7 0.27
8 0.27
9 0.27

> <PUBCHEM_EFFECTIVE_ROTOR_COUNT>
1.2

> <PUBCHEM_PHARMACOPHORE_FEATURES>
2
1 2 cation
8 2 3 4 5 6 7 8 9 rings

> <PUBCHEM_HEAVY_ATOM_COUNT>
9

> <PUBCHEM_ATOM_DEF_STEREO_COUNT>
0

> <PUBCHEM_ATOM_UDEF_STEREO_COUNT>
0

> <PUBCHEM_BOND_DEF_STEREO_COUNT>
0

> <PUBCHEM_BOND_UDEF_STEREO_COUNT>
0

> <PUBCHEM_ISOTOPIC_ATOM_COUNT>
0

> <PUBCHEM_COMPONENT_COUNT>
1

> <PUBCHEM_CACTVS_TAUTO_COUNT>
1

> <PUBCHEM_CONFORMER_ID>
00021D8A00000001

> <PUBCHEM_MMFF94_ENERGY>
24.0262

> <PUBCHEM_FEATURE_SELFOVERLAP>
10.148

> <PUBCHEM_SHAPE_FINGERPRINT>
12423570 1 12480179191272772126
13024252 1 16443063898471440904
137420 1 17967818300751129746
16945 1 18060136539687908159
21040471 1 18059571455262393311
29004967 10 18335991899689561739
5084963 1 18271811185478243007
5943 1 14040613308973268356
68250623 7 17753055187054690250

> <PUBCHEM_SHAPE_MULTIPOLES>
182.1
2.35
1.29
1.29
1.54
0.08
0.47
0
0
-0.24
-0.47
-0.24
-0.08
0

> <PUBCHEM_SHAPE_SELFOVERLAP>
367.418

> <PUBCHEM_SHAPE_VOLUME>
108.1

> <PUBCHEM_COORDINATE_TYPE>
2
5
10

$$$$
