5364407
  -OEChem-02172602443D

 21 20  0     0  0  0  0  0  0999 V2000
    2.3066   -0.2704   -0.9603 O   0  0  0  0  0  0  0  0  0  0  0  0
    2.0811   -0.1880    1.3112 O   0  0  0  0  0  0  0  0  0  0  0  0
   -0.7463   -0.3829   -0.2731 C   0  0  0  0  0  0  0  0  0  0  0  0
   -2.1850    0.0252   -0.5431 C   0  0  0  0  0  0  0  0  0  0  0  0
    0.2795    0.4877   -0.1334 C   0  0  0  0  0  0  0  0  0  0  0  0
   -0.5690   -1.8755   -0.1137 C   0  0  0  0  0  0  0  0  0  0  0  0
   -2.9746    0.2435    0.7401 C   0  0  0  0  0  0  0  0  0  0  0  0
    0.1732    1.9842   -0.2157 C   0  0  0  0  0  0  0  0  0  0  0  0
    1.6345   -0.0238    0.1879 C   0  0  0  0  0  0  0  0  0  0  0  0
   -2.2194    0.9357   -1.1518 H   0  0  0  0  0  0  0  0  0  0  0  0
   -2.6783   -0.7436   -1.1507 H   0  0  0  0  0  0  0  0  0  0  0  0
   -0.8691   -2.3854   -1.0356 H   0  0  0  0  0  0  0  0  0  0  0  0
    0.4551   -2.1879    0.1044 H   0  0  0  0  0  0  0  0  0  0  0  0
   -1.1980   -2.2454    0.7028 H   0  0  0  0  0  0  0  0  0  0  0  0
   -4.0004    0.5440    0.5035 H   0  0  0  0  0  0  0  0  0  0  0  0
   -3.0229   -0.6715    1.3395 H   0  0  0  0  0  0  0  0  0  0  0  0
   -2.5263    1.0303    1.3555 H   0  0  0  0  0  0  0  0  0  0  0  0
    0.7262    2.4502    0.6074 H   0  0  0  0  0  0  0  0  0  0  0  0
    0.6013    2.3392   -1.1586 H   0  0  0  0  0  0  0  0  0  0  0  0
   -0.8549    2.3481   -0.1483 H   0  0  0  0  0  0  0  0  0  0  0  0
    3.2118   -0.6081   -0.7907 H   0  0  0  0  0  0  0  0  0  0  0  0
  1  9  1  0  0  0  0
  1 21  1  0  0  0  0
  2  9  2  0  0  0  0
  3  4  1  0  0  0  0
  3  5  2  0  0  0  0
  3  6  1  0  0  0  0
  4  7  1  0  0  0  0
  4 10  1  0  0  0  0
  4 11  1  0  0  0  0
  5  8  1  0  0  0  0
  5  9  1  0  0  0  0
  6 12  1  0  0  0  0
  6 13  1  0  0  0  0
  6 14  1  0  0  0  0
  7 15  1  0  0  0  0
  7 16  1  0  0  0  0
  7 17  1  0  0  0  0
  8 18  1  0  0  0  0
  8 19  1  0  0  0  0
  8 20  1  0  0  0  0
M  END
> <PUBCHEM_COMPOUND_CID>
5364407

> <PUBCHEM_CONFORMER_RMSD>
0.4

> <PUBCHEM_CONFORMER_DIVERSEORDER>
1
9
5
7
4
8
2
6
3

> <PUBCHEM_MMFF94_PARTIAL_CHARGES>
9
1 -0.65
2 -0.57
21 0.5
3 -0.28
4 0.14
5 -0.12
6 0.14
8 0.14
9 0.71

> <PUBCHEM_EFFECTIVE_ROTOR_COUNT>
2

> <PUBCHEM_PHARMACOPHORE_FEATURES>
6
1 1 acceptor
1 2 acceptor
1 6 hydrophobe
1 7 hydrophobe
1 8 hydrophobe
3 1 2 9 anion

> <PUBCHEM_HEAVY_ATOM_COUNT>
9

> <PUBCHEM_ATOM_DEF_STEREO_COUNT>
0

> <PUBCHEM_ATOM_UDEF_STEREO_COUNT>
0

> <PUBCHEM_BOND_DEF_STEREO_COUNT>
1

> <PUBCHEM_BOND_UDEF_STEREO_COUNT>
0

> <PUBCHEM_ISOTOPIC_ATOM_COUNT>
0

> <PUBCHEM_COMPONENT_COUNT>
1

> <PUBCHEM_CACTVS_TAUTO_COUNT>
1

> <PUBCHEM_CONFORMER_ID>
0051DAB700000001

> <PUBCHEM_MMFF94_ENERGY>
15.6769

> <PUBCHEM_FEATURE_SELFOVERLAP>
30.501

> <PUBCHEM_SHAPE_FINGERPRINT>
15310529 11 16732700558062818999
16714656 1 18410297986305528868
18185500 45 18188193403553376826
20653091 64 18118960544939022457
21040471 1 18412260636078357783
23235685 24 18341620312533719495
23552333 60 17312821554890314688
23552423 10 17755297112828083527
24536 1 18057318611671330943
29004967 10 16081084883255581084
5084963 1 18060145353361589713

> <PUBCHEM_SHAPE_MULTIPOLES>
173.48
3.44
1.54
0.94
1
0.13
-0.15
-0.03
-0.56
0.07
0.14
-0.22
-0.03
-0.1

> <PUBCHEM_SHAPE_SELFOVERLAP>
327.029

> <PUBCHEM_SHAPE_VOLUME>
109

> <PUBCHEM_COORDINATE_TYPE>
2
5
10

$$$$
