14467711
  -OEChem-02172602303D

 35 37  0     1  0  0  0  0  0999 V2000
   -1.3837   -1.4534    0.5965 O   0  0  0  0  0  0  0  0  0  0  0  0
   -3.4120   -1.6190   -0.4828 O   0  0  0  0  0  0  0  0  0  0  0  0
    1.3003    1.0149   -0.5530 C   0  0  2  0  0  0  0  0  0  0  0  0
    0.5780   -0.3664   -0.3631 C   0  0  2  0  0  0  0  0  0  0  0  0
   -0.4277   -0.3901    0.8242 C   0  0  1  0  0  0  0  0  0  0  0  0
   -1.2967    0.8457    1.0050 C   0  0  1  0  0  0  0  0  0  0  0  0
    0.2889    2.1782   -0.4547 C   0  0  0  0  0  0  0  0  0  0  0  0
   -0.5426    2.1536    0.8204 C   0  0  0  0  0  0  0  0  0  0  0  0
    1.5971   -1.4917   -0.1419 C   0  0  0  0  0  0  0  0  0  0  0  0
    1.9441    1.0891   -1.9597 C   0  0  0  0  0  0  0  0  0  0  0  0
    2.4232    1.1685    0.4648 C   0  0  0  0  0  0  0  0  0  0  0  0
   -2.4179    0.5138    0.0793 C   0  0  0  0  0  0  0  0  0  0  0  0
   -2.5080   -0.9599   -0.0033 C   0  0  0  0  0  0  0  0  0  0  0  0
    2.7595   -1.2306    0.4854 C   0  0  0  0  0  0  0  0  0  0  0  0
    3.0778    0.1007    0.9463 C   0  0  0  0  0  0  0  0  0  0  0  0
    1.2547   -2.8610   -0.6473 C   0  0  0  0  0  0  0  0  0  0  0  0
   -3.2348    1.3077   -0.6161 C   0  0  0  0  0  0  0  0  0  0  0  0
    0.0364   -0.5886   -1.2938 H   0  0  0  0  0  0  0  0  0  0  0  0
    0.0866   -0.6053    1.7694 H   0  0  0  0  0  0  0  0  0  0  0  0
   -1.7209    0.8353    2.0194 H   0  0  0  0  0  0  0  0  0  0  0  0
   -0.3859    2.1521   -1.3202 H   0  0  0  0  0  0  0  0  0  0  0  0
    0.8130    3.1416   -0.5125 H   0  0  0  0  0  0  0  0  0  0  0  0
    0.1162    2.3080    1.6841 H   0  0  0  0  0  0  0  0  0  0  0  0
   -1.2396    3.0001    0.8175 H   0  0  0  0  0  0  0  0  0  0  0  0
    2.4441    2.0525   -2.1166 H   0  0  0  0  0  0  0  0  0  0  0  0
    2.6920    0.3041   -2.1181 H   0  0  0  0  0  0  0  0  0  0  0  0
    1.1863    0.9797   -2.7443 H   0  0  0  0  0  0  0  0  0  0  0  0
    2.7207    2.1644    0.7802 H   0  0  0  0  0  0  0  0  0  0  0  0
    3.4942   -2.0079    0.6667 H   0  0  0  0  0  0  0  0  0  0  0  0
    3.8929    0.2172    1.6514 H   0  0  0  0  0  0  0  0  0  0  0  0
    1.0369   -2.8256   -1.7196 H   0  0  0  0  0  0  0  0  0  0  0  0
    0.3806   -3.2615   -0.1266 H   0  0  0  0  0  0  0  0  0  0  0  0
    2.0784   -3.5678   -0.5014 H   0  0  0  0  0  0  0  0  0  0  0  0
   -3.1550    2.3872   -0.5529 H   0  0  0  0  0  0  0  0  0  0  0  0
   -4.0054    0.9049   -1.2650 H   0  0  0  0  0  0  0  0  0  0  0  0
  1  5  1  0  0  0  0
  1 13  1  0  0  0  0
  2 13  2  0  0  0  0
  3  4  1  0  0  0  0
  3  7  1  0  0  0  0
  3 10  1  0  0  0  0
  3 11  1  0  0  0  0
  4  5  1  0  0  0  0
  4  9  1  0  0  0  0
  4 18  1  0  0  0  0
  5  6  1  0  0  0  0
  5 19  1  0  0  0  0
  6  8  1  0  0  0  0
  6 12  1  0  0  0  0
  6 20  1  0  0  0  0
  7  8  1  0  0  0  0
  7 21  1  0  0  0  0
  7 22  1  0  0  0  0
  8 23  1  0  0  0  0
  8 24  1  0  0  0  0
  9 14  2  0  0  0  0
  9 16  1  0  0  0  0
 10 25  1  0  0  0  0
 10 26  1  0  0  0  0
 10 27  1  0  0  0  0
 11 15  2  0  0  0  0
 11 28  1  0  0  0  0
 12 13  1  0  0  0  0
 12 17  2  0  0  0  0
 14 15  1  0  0  0  0
 14 29  1  0  0  0  0
 15 30  1  0  0  0  0
 16 31  1  0  0  0  0
 16 32  1  0  0  0  0
 16 33  1  0  0  0  0
 17 34  1  0  0  0  0
 17 35  1  0  0  0  0
M  END
> <PUBCHEM_COMPOUND_CID>
14467711

> <PUBCHEM_CONFORMER_RMSD>
0.6

> <PUBCHEM_CONFORMER_DIVERSEORDER>
1
21
9
11
14
3
19
7
6
5
18
16
4
13
15
22
8
2
17
12
10
20

> <PUBCHEM_MMFF94_PARTIAL_CHARGES>
19
1 -0.43
11 -0.29
12 -0.12
13 0.71
14 -0.15
15 -0.15
16 0.14
17 -0.3
2 -0.57
28 0.15
29 0.15
3 0.14
30 0.15
34 0.15
35 0.15
4 0.14
5 0.28
6 0.14
9 -0.28

> <PUBCHEM_EFFECTIVE_ROTOR_COUNT>
0.6

> <PUBCHEM_PHARMACOPHORE_FEATURES>
4
1 2 acceptor
5 1 5 6 12 13 rings
6 3 4 5 6 7 8 rings
6 3 4 9 11 14 15 rings

> <PUBCHEM_HEAVY_ATOM_COUNT>
17

> <PUBCHEM_ATOM_DEF_STEREO_COUNT>
0

> <PUBCHEM_ATOM_UDEF_STEREO_COUNT>
4

> <PUBCHEM_BOND_DEF_STEREO_COUNT>
0

> <PUBCHEM_BOND_UDEF_STEREO_COUNT>
0

> <PUBCHEM_ISOTOPIC_ATOM_COUNT>
0

> <PUBCHEM_COMPONENT_COUNT>
1

> <PUBCHEM_CACTVS_TAUTO_COUNT>
1

> <PUBCHEM_CONFORMER_ID>
00DCC27F00000001

> <PUBCHEM_MMFF94_ENERGY>
42.2482

> <PUBCHEM_FEATURE_SELFOVERLAP>
20.546

> <PUBCHEM_SHAPE_FINGERPRINT>
10062212 137 18337378409812070627
10863032 1 18341321236712600984
10922523 26 18187926115043607477
10967382 1 18267864973774114347
11132069 177 18339069407240216384
12011746 2 18268424629967680606
12382932 28 18411413990576079584
12524768 44 18266183824690160867
13140716 1 18338804407573690339
14178342 30 18343869917814295753
14181834 199 17967535696525126748
14787075 74 17127313245605138744
15001771 113 18269001903067373769
15881359 60 17974250366775379492
16945 1 18197784310285694288
18981168 100 12396596168449596135
20559304 39 18336549437857550491
21501502 16 18261395589343499669
2334 1 18410580608123130859
23388829 49 18341326790152624970
23419403 2 17613945942503219064
23557571 272 18131915961774219859
23559900 14 18198893735193842354
24859131 72 18193535810710582906
2748010 2 18411708702752967434
296302 2 18260544524320217928
5255222 1 16677534439308898182
7364860 26 18201158737389030342
81228 2 17756152193656667720

> <PUBCHEM_SHAPE_MULTIPOLES>
338.11
4.71
2.55
1.18
1.81
0.68
-0.3
0.74
-0.08
-0.2
-0.37
-0.47
-0.36
-0.17

> <PUBCHEM_SHAPE_SELFOVERLAP>
731.338

> <PUBCHEM_SHAPE_VOLUME>
184.7

> <PUBCHEM_COORDINATE_TYPE>
2
5
10

$$$$
