12312886
  -OEChem-02172602373D

 85 90  0     1  0  0  0  0  0999 V2000
   -3.9450    0.7767    1.3651 O   0  0  0  0  0  0  0  0  0  0  0  0
    2.1701   -1.3224    1.8058 O   0  0  0  0  0  0  0  0  0  0  0  0
    1.1146   -3.4633    1.6808 O   0  0  0  0  0  0  0  0  0  0  0  0
    3.7845   -0.7857   -0.4258 O   0  0  0  0  0  0  0  0  0  0  0  0
   -8.5022    0.5034   -0.2032 O   0  0  0  0  0  0  0  0  0  0  0  0
    5.5998    0.1731   -1.5511 O   0  0  0  0  0  0  0  0  0  0  0  0
   -8.5284    2.1902    1.3621 O   0  0  0  0  0  0  0  0  0  0  0  0
    6.5609    1.9265    1.3441 O   0  0  0  0  0  0  0  0  0  0  0  0
    8.7479    1.6455   -0.3252 O   0  0  0  0  0  0  0  0  0  0  0  0
   -1.8697   -0.3377    0.7961 C   0  0  1  0  0  0  0  0  0  0  0  0
   -3.1615    0.3328    0.2480 C   0  0  1  0  0  0  0  0  0  0  0  0
   -1.0111   -1.0245   -0.3035 C   0  0  1  0  0  0  0  0  0  0  0  0
   -4.0098   -0.5868   -0.6723 C   0  0  2  0  0  0  0  0  0  0  0  0
    0.2897   -1.7090    0.2847 C   0  0  2  0  0  0  0  0  0  0  0  0
    1.1093   -0.6504    1.1078 C   0  0  1  0  0  0  0  0  0  0  0  0
   -1.8889   -1.9721   -1.1445 C   0  0  0  0  0  0  0  0  0  0  0  0
   -3.1007   -1.2564   -1.7388 C   0  0  0  0  0  0  0  0  0  0  0  0
   -4.9688    0.4134   -1.3952 C   0  0  2  0  0  0  0  0  0  0  0  0
   -1.0334    0.6543    1.6261 C   0  0  0  0  0  0  0  0  0  0  0  0
   -2.9204    1.5762   -0.6251 C   0  0  0  0  0  0  0  0  0  0  0  0
    0.2383    0.0264    2.1812 C   0  0  0  0  0  0  0  0  0  0  0  0
   -4.1589    1.7181   -1.5193 C   0  0  0  0  0  0  0  0  0  0  0  0
    1.2090   -2.2805   -0.8388 C   0  0  0  0  0  0  0  0  0  0  0  0
    1.7662    0.4181    0.1923 C   0  0  0  0  0  0  0  0  0  0  0  0
   -0.0842   -2.9250    1.1787 C   0  0  0  0  0  0  0  0  0  0  0  0
   -4.7713   -1.6898    0.0906 C   0  0  0  0  0  0  0  0  0  0  0  0
    1.8246   -1.2126   -1.7420 C   0  0  0  0  0  0  0  0  0  0  0  0
    2.6051   -0.1748   -0.9437 C   0  0  2  0  0  0  0  0  0  0  0  0
   -6.2809    0.6952   -0.7228 C   0  0  0  0  0  0  0  0  0  0  0  0
   -7.5004   -0.0717   -1.0488 C   0  0  0  0  0  0  0  0  0  0  0  0
   -6.5257    1.6168    0.2049 C   0  0  0  0  0  0  0  0  0  0  0  0
    4.8561    0.1486   -0.3328 C   0  0  2  0  0  0  0  0  0  0  0  0
   -7.9451    1.5013    0.5429 C   0  0  0  0  0  0  0  0  0  0  0  0
    5.7538   -0.2831    0.8289 C   0  0  0  0  0  0  0  0  0  0  0  0
    6.9772    0.6219    0.9382 C   0  0  1  0  0  0  0  0  0  0  0  0
    6.6863    1.1070   -1.5223 C   0  0  1  0  0  0  0  0  0  0  0  0
    7.6793    0.7123   -0.4195 C   0  0  1  0  0  0  0  0  0  0  0  0
    7.3266    1.0959   -2.9068 C   0  0  0  0  0  0  0  0  0  0  0  0
    5.9070    1.8920    2.6035 C   0  0  0  0  0  0  0  0  0  0  0  0
   -2.2052   -1.1122    1.4990 H   0  0  0  0  0  0  0  0  0  0  0  0
   -0.6791   -0.2357   -0.9878 H   0  0  0  0  0  0  0  0  0  0  0  0
   -1.3128   -2.3841   -1.9791 H   0  0  0  0  0  0  0  0  0  0  0  0
   -2.2286   -2.8242   -0.5488 H   0  0  0  0  0  0  0  0  0  0  0  0
   -2.7379   -0.5155   -2.4627 H   0  0  0  0  0  0  0  0  0  0  0  0
   -3.6870   -1.9757   -2.3255 H   0  0  0  0  0  0  0  0  0  0  0  0
   -5.2012    0.0555   -2.4075 H   0  0  0  0  0  0  0  0  0  0  0  0
   -0.7722    1.5323    1.0261 H   0  0  0  0  0  0  0  0  0  0  0  0
   -1.6166    1.0263    2.4761 H   0  0  0  0  0  0  0  0  0  0  0  0
   -2.0372    1.4693   -1.2631 H   0  0  0  0  0  0  0  0  0  0  0  0
   -2.7840    2.4890   -0.0346 H   0  0  0  0  0  0  0  0  0  0  0  0
    0.8251    0.7932    2.7043 H   0  0  0  0  0  0  0  0  0  0  0  0
   -0.0230   -0.6983    2.9628 H   0  0  0  0  0  0  0  0  0  0  0  0
   -3.8211    1.8332   -2.5581 H   0  0  0  0  0  0  0  0  0  0  0  0
   -4.7076    2.6389   -1.2984 H   0  0  0  0  0  0  0  0  0  0  0  0
    2.0418   -2.8591   -0.4221 H   0  0  0  0  0  0  0  0  0  0  0  0
    0.6610   -2.9975   -1.4601 H   0  0  0  0  0  0  0  0  0  0  0  0
    2.4057    1.0571    0.8138 H   0  0  0  0  0  0  0  0  0  0  0  0
    1.0043    1.0666   -0.2524 H   0  0  0  0  0  0  0  0  0  0  0  0
   -0.7110   -2.6470    2.0286 H   0  0  0  0  0  0  0  0  0  0  0  0
   -0.6086   -3.7077    0.6216 H   0  0  0  0  0  0  0  0  0  0  0  0
   -4.0858   -2.3645    0.6129 H   0  0  0  0  0  0  0  0  0  0  0  0
   -5.4402   -1.2855    0.8567 H   0  0  0  0  0  0  0  0  0  0  0  0
   -5.3688   -2.3006   -0.5948 H   0  0  0  0  0  0  0  0  0  0  0  0
    2.4942   -1.7070   -2.4566 H   0  0  0  0  0  0  0  0  0  0  0  0
    1.0408   -0.7218   -2.3291 H   0  0  0  0  0  0  0  0  0  0  0  0
    2.8834    0.6250   -1.6435 H   0  0  0  0  0  0  0  0  0  0  0  0
   -3.5189    1.5535    1.7627 H   0  0  0  0  0  0  0  0  0  0  0  0
    2.8120   -1.6600    1.1610 H   0  0  0  0  0  0  0  0  0  0  0  0
   -7.4175   -1.1361   -0.8186 H   0  0  0  0  0  0  0  0  0  0  0  0
   -7.8027    0.0577   -2.0922 H   0  0  0  0  0  0  0  0  0  0  0  0
    1.3634   -4.2188    1.1218 H   0  0  0  0  0  0  0  0  0  0  0  0
   -5.8653    2.3368    0.6553 H   0  0  0  0  0  0  0  0  0  0  0  0
    4.4706    1.1565   -0.1313 H   0  0  0  0  0  0  0  0  0  0  0  0
    5.1695   -0.3558    1.7511 H   0  0  0  0  0  0  0  0  0  0  0  0
    6.1034   -1.3062    0.6312 H   0  0  0  0  0  0  0  0  0  0  0  0
    7.6855    0.2399    1.6841 H   0  0  0  0  0  0  0  0  0  0  0  0
    6.2906    2.1162   -1.3490 H   0  0  0  0  0  0  0  0  0  0  0  0
    8.1109   -0.2690   -0.6528 H   0  0  0  0  0  0  0  0  0  0  0  0
    8.1487    1.8143   -2.9750 H   0  0  0  0  0  0  0  0  0  0  0  0
    7.7090    0.0992   -3.1529 H   0  0  0  0  0  0  0  0  0  0  0  0
    6.5831    1.3446   -3.6720 H   0  0  0  0  0  0  0  0  0  0  0  0
    8.3644    2.5132   -0.1108 H   0  0  0  0  0  0  0  0  0  0  0  0
    4.8510    1.6313    2.4895 H   0  0  0  0  0  0  0  0  0  0  0  0
    6.4043    1.2209    3.3114 H   0  0  0  0  0  0  0  0  0  0  0  0
    5.9408    2.9031    3.0208 H   0  0  0  0  0  0  0  0  0  0  0  0
  1 11  1  0  0  0  0
  1 67  1  0  0  0  0
  2 15  1  0  0  0  0
  2 68  1  0  0  0  0
  3 25  1  0  0  0  0
  3 71  1  0  0  0  0
  4 28  1  0  0  0  0
  4 32  1  0  0  0  0
  5 30  1  0  0  0  0
  5 33  1  0  0  0  0
  6 32  1  0  0  0  0
  6 36  1  0  0  0  0
  7 33  2  0  0  0  0
  8 35  1  0  0  0  0
  8 39  1  0  0  0  0
  9 37  1  0  0  0  0
  9 82  1  0  0  0  0
 10 11  1  0  0  0  0
 10 12  1  0  0  0  0
 10 19  1  0  0  0  0
 10 40  1  0  0  0  0
 11 13  1  0  0  0  0
 11 20  1  0  0  0  0
 12 14  1  0  0  0  0
 12 16  1  0  0  0  0
 12 41  1  0  0  0  0
 13 17  1  0  0  0  0
 13 18  1  0  0  0  0
 13 26  1  0  0  0  0
 14 15  1  0  0  0  0
 14 23  1  0  0  0  0
 14 25  1  0  0  0  0
 15 21  1  0  0  0  0
 15 24  1  0  0  0  0
 16 17  1  0  0  0  0
 16 42  1  0  0  0  0
 16 43  1  0  0  0  0
 17 44  1  0  0  0  0
 17 45  1  0  0  0  0
 18 22  1  0  0  0  0
 18 29  1  0  0  0  0
 18 46  1  0  0  0  0
 19 21  1  0  0  0  0
 19 47  1  0  0  0  0
 19 48  1  0  0  0  0
 20 22  1  0  0  0  0
 20 49  1  0  0  0  0
 20 50  1  0  0  0  0
 21 51  1  0  0  0  0
 21 52  1  0  0  0  0
 22 53  1  0  0  0  0
 22 54  1  0  0  0  0
 23 27  1  0  0  0  0
 23 55  1  0  0  0  0
 23 56  1  0  0  0  0
 24 28  1  0  0  0  0
 24 57  1  0  0  0  0
 24 58  1  0  0  0  0
 25 59  1  0  0  0  0
 25 60  1  0  0  0  0
 26 61  1  0  0  0  0
 26 62  1  0  0  0  0
 26 63  1  0  0  0  0
 27 28  1  0  0  0  0
 27 64  1  0  0  0  0
 27 65  1  0  0  0  0
 28 66  1  0  0  0  0
 29 30  1  0  0  0  0
 29 31  2  0  0  0  0
 30 69  1  0  0  0  0
 30 70  1  0  0  0  0
 31 33  1  0  0  0  0
 31 72  1  0  0  0  0
 32 34  1  0  0  0  0
 32 73  1  0  0  0  0
 34 35  1  0  0  0  0
 34 74  1  0  0  0  0
 34 75  1  0  0  0  0
 35 37  1  0  0  0  0
 35 76  1  0  0  0  0
 36 37  1  0  0  0  0
 36 38  1  0  0  0  0
 36 77  1  0  0  0  0
 37 78  1  0  0  0  0
 38 79  1  0  0  0  0
 38 80  1  0  0  0  0
 38 81  1  0  0  0  0
 39 83  1  0  0  0  0
 39 84  1  0  0  0  0
 39 85  1  0  0  0  0
M  END
> <PUBCHEM_COMPOUND_CID>
12312886

> <PUBCHEM_CONFORMER_RMSD>
1

> <PUBCHEM_CONFORMER_DIVERSEORDER>
5
8
15
20
21
25
22
26
17
12
18
23
16
14
13
19
6
9
3
1
24
10
4
11
2
7

> <PUBCHEM_MMFF94_PARTIAL_CHARGES>
28
1 -0.68
11 0.28
15 0.28
18 0.14
2 -0.68
25 0.28
28 0.28
29 -0.28
3 -0.68
30 0.42
31 -0.14
32 0.56
33 0.71
35 0.28
36 0.28
37 0.28
39 0.28
4 -0.56
5 -0.43
6 -0.56
67 0.4
68 0.4
7 -0.57
71 0.4
72 0.15
8 -0.56
82 0.4
9 -0.68

> <PUBCHEM_EFFECTIVE_ROTOR_COUNT>
8.8

> <PUBCHEM_PHARMACOPHORE_FEATURES>
18
1 1 acceptor
1 1 donor
1 2 acceptor
1 2 donor
1 3 acceptor
1 3 donor
1 4 acceptor
1 6 acceptor
1 7 acceptor
1 8 acceptor
1 9 acceptor
1 9 donor
5 11 13 18 20 22 rings
5 5 29 30 31 33 rings
6 10 11 12 13 16 17 rings
6 10 12 14 15 19 21 rings
6 14 15 23 24 27 28 rings
6 6 32 34 35 36 37 rings

> <PUBCHEM_HEAVY_ATOM_COUNT>
39

> <PUBCHEM_ATOM_DEF_STEREO_COUNT>
12

> <PUBCHEM_ATOM_UDEF_STEREO_COUNT>
0

> <PUBCHEM_BOND_DEF_STEREO_COUNT>
0

> <PUBCHEM_BOND_UDEF_STEREO_COUNT>
0

> <PUBCHEM_ISOTOPIC_ATOM_COUNT>
0

> <PUBCHEM_COMPONENT_COUNT>
1

> <PUBCHEM_CACTVS_TAUTO_COUNT>
1

> <PUBCHEM_CONFORMER_ID>
00BBE13600000005

> <PUBCHEM_MMFF94_ENERGY>
145.7496

> <PUBCHEM_FEATURE_SELFOVERLAP>
91.704

> <PUBCHEM_SHAPE_FINGERPRINT>
10 15 16443068300433247916
10076449 9 13398630537499966729
10165383 225 18342737408464506743
10299344 5 12751242510265110740
10533779 47 12973885845874946765
10674148 151 16845571989659563435
11115154 58 14333413337661720803
11456790 92 16370720431279157124
13150687 139 18271813406425287334
13383668 362 13480285853919289077
13560911 43 17094962143325455637
13673619 4 10447928356326207182
13690498 29 14261352423217764657
13726171 33 18198909098508800649
13782708 43 13254782560666712437
13811026 1 17489867155062678256
14040222 383 18260832656907759387
14340393 91 15626228983218352016
14849402 71 17023475255872283732
150020 25 17346602988701832452
15064981 194 18199197362973581469
15064986 266 16343438257605926947
15064986 96 15791727473990358392
15082195 135 17346884477302137664
15183329 4 17775566442688889530
15301273 46 11963383046566404277
15320295 40 12540699245604114951
15361156 5 16415470576478820933
15392192 104 12829503549455648440
1577012 14 17603587465037980798
15840311 113 17458344109523747798
16994733 274 18337673019031218985
18393751 57 17240485809869490611
18603816 31 9871454388952129269
19304144 158 17241037709704990245
20105231 36 16487255478858876855
20505436 4 18411131425079576767
20554085 129 18408879651325118282
21033648 29 18187642561598124656
21304304 249 11097862882476324257
21792965 131 15792285020885867523
22224240 67 15574714703119981803
23559900 14 14692270873319711379
23576562 1 17488446642138241965
24771293 8 18334861593953765789
2838139 119 17967808371119311228
3178227 256 17168150039373749093
3383291 50 10809346641818180197
3633792 109 16917352554607985280
3918712 181 18334574677021850044
4015057 19 16773238517641543658
4093350 32 18040991800861397666
4098825 35 17275100626819895377
4112364 45 16805327716936820118
4149490 64 18335704897191175267
439807 62 14261354639795792876
44880568 143 17987795353739962228
474113 269 9439403497992718137
5219985 9 11384116340673701778
5265222 85 16773788230046666781
5470011 282 15482671295278569668
5758199 1 18335420158222980483
5937810 71 17274549733251313209
6081469 158 11240001139918172117
9962374 69 11386660640950770426

> <PUBCHEM_SHAPE_MULTIPOLES>
749.78
24.48
2.41
2.15
4.97
1.12
0.02
-19.07
4.9
-0.55
-0.77
2.87
-0.27
-0.47

> <PUBCHEM_SHAPE_SELFOVERLAP>
1611.88

> <PUBCHEM_SHAPE_VOLUME>
409.6

> <PUBCHEM_COORDINATE_TYPE>
2
5
10

$$$$
