162787571
  -OEChem-02172602233D

 35 34  0     1  0  0  0  0  0999 V2000
    6.0252   -0.4348   -0.4047 S   0  0  1  0  0  0  0  0  0  0  0  0
    6.1100   -1.5863    0.5482 O   0  0  0  0  0  0  0  0  0  0  0  0
   -7.8024   -0.8433   -0.0687 N   0  0  0  0  0  0  0  0  0  0  0  0
   -0.5161    0.6186    0.0949 C   0  0  0  0  0  0  0  0  0  0  0  0
    0.7582   -0.1362   -0.2973 C   0  0  0  0  0  0  0  0  0  0  0  0
   -1.7994   -0.1490   -0.2337 C   0  0  0  0  0  0  0  0  0  0  0  0
    2.0429    0.5962    0.0960 C   0  0  0  0  0  0  0  0  0  0  0  0
   -3.0738    0.6122    0.1476 C   0  0  0  0  0  0  0  0  0  0  0  0
    3.2828   -0.2100   -0.2967 C   0  0  0  0  0  0  0  0  0  0  0  0
   -4.3566   -0.1866   -0.1116 C   0  0  0  0  0  0  0  0  0  0  0  0
    4.5604    0.5385    0.0597 C   0  0  0  0  0  0  0  0  0  0  0  0
   -5.6218    0.5878    0.2642 C   0  0  0  0  0  0  0  0  0  0  0  0
    7.2303    0.8053    0.1242 C   0  0  0  0  0  0  0  0  0  0  0  0
   -6.8397   -0.2125    0.0779 C   0  0  0  0  0  0  0  0  0  0  0  0
   -0.4920    0.8303    1.1710 H   0  0  0  0  0  0  0  0  0  0  0  0
   -0.5318    1.5878   -0.4185 H   0  0  0  0  0  0  0  0  0  0  0  0
    0.7534   -0.3080   -1.3808 H   0  0  0  0  0  0  0  0  0  0  0  0
    0.7482   -1.1241    0.1799 H   0  0  0  0  0  0  0  0  0  0  0  0
   -1.8228   -0.3741   -1.3069 H   0  0  0  0  0  0  0  0  0  0  0  0
   -1.7846   -1.1117    0.2920 H   0  0  0  0  0  0  0  0  0  0  0  0
    2.0675    1.5766   -0.3948 H   0  0  0  0  0  0  0  0  0  0  0  0
    2.0475    0.7751    1.1780 H   0  0  0  0  0  0  0  0  0  0  0  0
   -3.0282    0.8796    1.2106 H   0  0  0  0  0  0  0  0  0  0  0  0
   -3.1124    1.5529   -0.4152 H   0  0  0  0  0  0  0  0  0  0  0  0
    3.2616   -0.4164   -1.3743 H   0  0  0  0  0  0  0  0  0  0  0  0
    3.2621   -1.1823    0.2114 H   0  0  0  0  0  0  0  0  0  0  0  0
   -4.4015   -0.4690   -1.1713 H   0  0  0  0  0  0  0  0  0  0  0  0
   -4.3171   -1.1238    0.4585 H   0  0  0  0  0  0  0  0  0  0  0  0
    4.6057    0.7387    1.1352 H   0  0  0  0  0  0  0  0  0  0  0  0
    4.6040    1.4918   -0.4771 H   0  0  0  0  0  0  0  0  0  0  0  0
   -5.5588    0.9065    1.3113 H   0  0  0  0  0  0  0  0  0  0  0  0
   -5.6875    1.4988   -0.3420 H   0  0  0  0  0  0  0  0  0  0  0  0
    8.2341    0.4021   -0.0286 H   0  0  0  0  0  0  0  0  0  0  0  0
    7.1106    1.7106   -0.4755 H   0  0  0  0  0  0  0  0  0  0  0  0
    7.0903    1.0352    1.1831 H   0  0  0  0  0  0  0  0  0  0  0  0
  1  2  2  0  0  0  0
  1 11  1  0  0  0  0
  1 13  1  0  0  0  0
  3 14  3  0  0  0  0
  4  5  1  0  0  0  0
  4  6  1  0  0  0  0
  4 15  1  0  0  0  0
  4 16  1  0  0  0  0
  5  7  1  0  0  0  0
  5 17  1  0  0  0  0
  5 18  1  0  0  0  0
  6  8  1  0  0  0  0
  6 19  1  0  0  0  0
  6 20  1  0  0  0  0
  7  9  1  0  0  0  0
  7 21  1  0  0  0  0
  7 22  1  0  0  0  0
  8 10  1  0  0  0  0
  8 23  1  0  0  0  0
  8 24  1  0  0  0  0
  9 11  1  0  0  0  0
  9 25  1  0  0  0  0
  9 26  1  0  0  0  0
 10 12  1  0  0  0  0
 10 27  1  0  0  0  0
 10 28  1  0  0  0  0
 11 29  1  0  0  0  0
 11 30  1  0  0  0  0
 12 14  1  0  0  0  0
 12 31  1  0  0  0  0
 12 32  1  0  0  0  0
 13 33  1  0  0  0  0
 13 34  1  0  0  0  0
 13 35  1  0  0  0  0
M  END
> <PUBCHEM_COMPOUND_CID>
162787571

> <PUBCHEM_CONFORMER_RMSD>
1.2

> <PUBCHEM_CONFORMER_DIVERSEORDER>
1
49
27
63
3
18
60
24
22
32
40
77
17
31
54
35
42
34
14
20
57
26
30
65
12
44
5
21
45
10
59
51
53
52
74
6
48
13
41
38
66
7
55
2
64
9
16
47
70
58
39
23
62
69
67
4
61
28
43
71
80
11
78
19
56
79
8
75
33
37
68
15
50
29
72
25
36
73
76
81
46
82

> <PUBCHEM_MMFF94_PARTIAL_CHARGES>
7
1 0.11
11 0.19
12 0.2
13 0.19
14 0.36
2 -0.5
3 -0.56

> <PUBCHEM_EFFECTIVE_ROTOR_COUNT>
9

> <PUBCHEM_PHARMACOPHORE_FEATURES>
2
1 2 acceptor
1 3 acceptor

> <PUBCHEM_HEAVY_ATOM_COUNT>
14

> <PUBCHEM_ATOM_DEF_STEREO_COUNT>
0

> <PUBCHEM_ATOM_UDEF_STEREO_COUNT>
1

> <PUBCHEM_BOND_DEF_STEREO_COUNT>
0

> <PUBCHEM_BOND_UDEF_STEREO_COUNT>
0

> <PUBCHEM_ISOTOPIC_ATOM_COUNT>
0

> <PUBCHEM_COMPONENT_COUNT>
1

> <PUBCHEM_CACTVS_TAUTO_COUNT>
-1

> <PUBCHEM_CONFORMER_ID>
09B3F0F300000001

> <PUBCHEM_MMFF94_ENERGY>
1.0612

> <PUBCHEM_FEATURE_SELFOVERLAP>
10.149

> <PUBCHEM_SHAPE_FINGERPRINT>
12091667 2 17748828510735670165
13533116 47 18340764850345148338
14123256 10 14779264211491289229
1420 363 18186804668774965204
14251764 18 18272653445739492161
14251764 46 17312822684276659913
15048467 5 9727632804412456923
15716309 27 18272650151768724991
17834076 25 18412263939150658565
18006028 8 17240201041000725157
20281389 69 18131349713075211224
20767249 213 10375868576006916125
21130983 4 10879990267996606819
22224240 67 18113335332024952346
23035841 295 18343584045134062219
23402539 116 17632571652265999613
23521765 1 18413952793211009205
33532 11 18334574607927605810
33684 2 18187081758437124808
42788 4 18342176665697124277
59755656 215 16660361454694009531
59755656 520 18334289894946565015
8209 1 18408604768447817428

> <PUBCHEM_SHAPE_MULTIPOLES>
281.11
23.65
0.99
0.67
8.94
0.13
-0.01
3.5
1.24
-0.81
0.09
-0.25
0.03
-0.26

> <PUBCHEM_SHAPE_SELFOVERLAP>
495.802

> <PUBCHEM_SHAPE_VOLUME>
182.8

> <PUBCHEM_COORDINATE_TYPE>
2
5
10

$$$$
