10031482
  -OEChem-03052615053D

 67 71  0     1  0  0  0  0  0999 V2000
   -1.1109    1.4910    0.6535 O   0  0  0  0  0  0  0  0  0  0  0  0
   -2.1487   -0.9552    1.7483 O   0  0  0  0  0  0  0  0  0  0  0  0
    0.9884    0.8680    1.5678 O   0  0  0  0  0  0  0  0  0  0  0  0
   -2.1929   -0.0099    4.3654 O   0  0  0  0  0  0  0  0  0  0  0  0
   -2.4058    2.7895    3.8514 O   0  0  0  0  0  0  0  0  0  0  0  0
    3.4643    0.3491   -1.1132 O   0  0  0  0  0  0  0  0  0  0  0  0
   -0.9146   -2.5538    0.6436 O   0  0  0  0  0  0  0  0  0  0  0  0
    2.1821   -1.5475    2.2577 O   0  0  0  0  0  0  0  0  0  0  0  0
    3.8929   -3.4781    1.8291 O   0  0  0  0  0  0  0  0  0  0  0  0
    6.6138   -3.0789   -2.0416 O   0  0  0  0  0  0  0  0  0  0  0  0
   -5.6561    0.2711   -1.4596 O   0  0  0  0  0  0  0  0  0  0  0  0
   -4.7034   -4.3397   -2.3349 O   0  0  0  0  0  0  0  0  0  0  0  0
   -0.6434    3.4045   -3.0779 O   0  0  0  0  0  0  0  0  0  0  0  0
   -6.2566   -2.0903   -2.7763 O   0  0  0  0  0  0  0  0  0  0  0  0
    0.5149    5.7940   -2.2568 O   0  0  0  0  0  0  0  0  0  0  0  0
   -1.4046    0.6657    3.3881 C   0  0  2  0  0  0  0  0  0  0  0  0
   -2.2076    1.8332    2.8131 C   0  0  2  0  0  0  0  0  0  0  0  0
   -0.9925   -0.3110    2.2855 C   0  0  2  0  0  0  0  0  0  0  0  0
   -1.4469    2.4703    1.6418 C   0  0  2  0  0  0  0  0  0  0  0  0
   -0.2941    0.4213    1.1412 C   0  0  1  0  0  0  0  0  0  0  0  0
   -2.2725    3.5457    0.9411 C   0  0  0  0  0  0  0  0  0  0  0  0
    1.9988    0.3172    0.8096 C   0  0  0  0  0  0  0  0  0  0  0  0
   -1.9161   -1.8660    0.7671 C   0  0  0  0  0  0  0  0  0  0  0  0
    2.4733    0.8918   -0.3107 C   0  0  0  0  0  0  0  0  0  0  0  0
    2.5720   -0.9785    1.2468 C   0  0  0  0  0  0  0  0  0  0  0  0
    3.6329   -1.5426    0.3983 C   0  0  0  0  0  0  0  0  0  0  0  0
   -3.0656   -1.9254   -0.1706 C   0  0  0  0  0  0  0  0  0  0  0  0
    4.0248   -0.8459   -0.7426 C   0  0  0  0  0  0  0  0  0  0  0  0
    1.9575    2.1740   -0.8223 C   0  0  0  0  0  0  0  0  0  0  0  0
    4.2393   -2.7579    0.7261 C   0  0  0  0  0  0  0  0  0  0  0  0
   -3.3415   -3.1150   -0.8131 C   0  0  0  0  0  0  0  0  0  0  0  0
   -3.8227   -0.7891   -0.3710 C   0  0  0  0  0  0  0  0  0  0  0  0
    5.0271   -1.3611   -1.5650 C   0  0  0  0  0  0  0  0  0  0  0  0
    0.8886    2.1891   -1.7189 C   0  0  0  0  0  0  0  0  0  0  0  0
    2.5387    3.3739   -0.4109 C   0  0  0  0  0  0  0  0  0  0  0  0
    5.2420   -3.2708   -0.0977 C   0  0  0  0  0  0  0  0  0  0  0  0
    5.6352   -2.5741   -1.2410 C   0  0  0  0  0  0  0  0  0  0  0  0
   -4.9025   -0.8448   -1.2523 C   0  0  0  0  0  0  0  0  0  0  0  0
   -4.4213   -3.1708   -1.6945 C   0  0  0  0  0  0  0  0  0  0  0  0
    0.4013    3.4029   -2.2036 C   0  0  0  0  0  0  0  0  0  0  0  0
    2.0516    4.5876   -0.8955 C   0  0  0  0  0  0  0  0  0  0  0  0
   -5.2019   -2.0358   -1.9140 C   0  0  0  0  0  0  0  0  0  0  0  0
    0.9827    4.6022   -1.7917 C   0  0  0  0  0  0  0  0  0  0  0  0
   -0.5155    1.0423    3.9078 H   0  0  0  0  0  0  0  0  0  0  0  0
   -3.1975    1.4868    2.4935 H   0  0  0  0  0  0  0  0  0  0  0  0
   -0.3521   -1.0791    2.7346 H   0  0  0  0  0  0  0  0  0  0  0  0
   -0.5250    2.9469    1.9995 H   0  0  0  0  0  0  0  0  0  0  0  0
   -0.1848   -0.2344    0.2711 H   0  0  0  0  0  0  0  0  0  0  0  0
   -3.1889    3.1195    0.5178 H   0  0  0  0  0  0  0  0  0  0  0  0
   -2.5445    4.3540    1.6262 H   0  0  0  0  0  0  0  0  0  0  0  0
   -1.7111    3.9749    0.1050 H   0  0  0  0  0  0  0  0  0  0  0  0
   -2.9618   -0.3951    3.9113 H   0  0  0  0  0  0  0  0  0  0  0  0
   -1.5345    3.1271    4.1204 H   0  0  0  0  0  0  0  0  0  0  0  0
   -2.7390   -4.0030   -0.6435 H   0  0  0  0  0  0  0  0  0  0  0  0
   -3.5939    0.1480    0.1279 H   0  0  0  0  0  0  0  0  0  0  0  0
    5.3350   -0.8202   -2.4563 H   0  0  0  0  0  0  0  0  0  0  0  0
    0.4353    1.2544   -2.0424 H   0  0  0  0  0  0  0  0  0  0  0  0
    3.3724    3.3784    0.2871 H   0  0  0  0  0  0  0  0  0  0  0  0
    5.7205   -4.2161    0.1484 H   0  0  0  0  0  0  0  0  0  0  0  0
    2.5085    5.5183   -0.5706 H   0  0  0  0  0  0  0  0  0  0  0  0
    4.4321   -4.2862    1.8716 H   0  0  0  0  0  0  0  0  0  0  0  0
    6.9227   -3.9227   -1.6692 H   0  0  0  0  0  0  0  0  0  0  0  0
   -5.3021    0.9985   -0.9197 H   0  0  0  0  0  0  0  0  0  0  0  0
   -5.4798   -4.1972   -2.9038 H   0  0  0  0  0  0  0  0  0  0  0  0
   -0.9189    2.4868   -3.2444 H   0  0  0  0  0  0  0  0  0  0  0  0
   -6.6782   -1.2137   -2.8014 H   0  0  0  0  0  0  0  0  0  0  0  0
   -0.2252    5.6164   -2.8629 H   0  0  0  0  0  0  0  0  0  0  0  0
  1 19  1  0  0  0  0
  1 20  1  0  0  0  0
  2 18  1  0  0  0  0
  2 23  1  0  0  0  0
  3 20  1  0  0  0  0
  3 22  1  0  0  0  0
  4 16  1  0  0  0  0
  4 52  1  0  0  0  0
  5 17  1  0  0  0  0
  5 53  1  0  0  0  0
  6 24  1  0  0  0  0
  6 28  1  0  0  0  0
  7 23  2  0  0  0  0
  8 25  2  0  0  0  0
  9 30  1  0  0  0  0
  9 61  1  0  0  0  0
 10 37  1  0  0  0  0
 10 62  1  0  0  0  0
 11 38  1  0  0  0  0
 11 63  1  0  0  0  0
 12 39  1  0  0  0  0
 12 64  1  0  0  0  0
 13 40  1  0  0  0  0
 13 65  1  0  0  0  0
 14 42  1  0  0  0  0
 14 66  1  0  0  0  0
 15 43  1  0  0  0  0
 15 67  1  0  0  0  0
 16 17  1  0  0  0  0
 16 18  1  0  0  0  0
 16 44  1  0  0  0  0
 17 19  1  0  0  0  0
 17 45  1  0  0  0  0
 18 20  1  0  0  0  0
 18 46  1  0  0  0  0
 19 21  1  0  0  0  0
 19 47  1  0  0  0  0
 20 48  1  0  0  0  0
 21 49  1  0  0  0  0
 21 50  1  0  0  0  0
 21 51  1  0  0  0  0
 22 24  2  0  0  0  0
 22 25  1  0  0  0  0
 23 27  1  0  0  0  0
 24 29  1  0  0  0  0
 25 26  1  0  0  0  0
 26 28  1  0  0  0  0
 26 30  2  0  0  0  0
 27 31  2  0  0  0  0
 27 32  1  0  0  0  0
 28 33  2  0  0  0  0
 29 34  2  0  0  0  0
 29 35  1  0  0  0  0
 30 36  1  0  0  0  0
 31 39  1  0  0  0  0
 31 54  1  0  0  0  0
 32 38  2  0  0  0  0
 32 55  1  0  0  0  0
 33 37  1  0  0  0  0
 33 56  1  0  0  0  0
 34 40  1  0  0  0  0
 34 57  1  0  0  0  0
 35 41  2  0  0  0  0
 35 58  1  0  0  0  0
 36 37  2  0  0  0  0
 36 59  1  0  0  0  0
 38 42  1  0  0  0  0
 39 42  2  0  0  0  0
 40 43  2  0  0  0  0
 41 43  1  0  0  0  0
 41 60  1  0  0  0  0
M  END
> <PUBCHEM_COMPOUND_CID>
10031482

> <PUBCHEM_CONFORMER_RMSD>
1

> <PUBCHEM_CONFORMER_DIVERSEORDER>
1
59
144
88
82
126
125
134
26
36
132
146
47
70
109
99
103
113
50
155
139
142
114
83
75
92
154
43
148
33
96
64
58
15
121
22
85
145
108
44
131
67
68
116
106
81
98
73
115
10
137
52
21
138
13
38
51
32
40
69
94
162
150
6
77
56
112
111
55
84
107
101
129
29
31
90
158
71
49
19
5
93
105
117
160
128
20
161
122
41
27
140
42
17
104
95
118
147
80
53
89
30
153
120
9
11
135
39
127
45
124
141
79
65
34
60
91
157
143
110
66
2
7
149
78
57
4
123
16
100
87
130
119
133
102
63
62
35
8
151
76
54
86
3
61
48
18
136
23
46
72
159
25
28
97
156
24
74
152
12
37
14

> <PUBCHEM_MMFF94_PARTIAL_CHARGES>
58
1 -0.56
10 -0.53
11 -0.53
12 -0.53
13 -0.53
14 -0.53
15 -0.53
16 0.28
17 0.28
18 0.28
19 0.28
2 -0.43
20 0.56
22 0.09
23 0.63
24 0.05
25 0.47
26 0.09
27 0.09
28 0.08
29 0.03
3 -0.36
30 0.08
31 -0.15
32 -0.15
33 -0.15
34 -0.15
35 -0.15
36 -0.15
37 0.08
38 0.08
39 0.08
4 -0.68
40 0.08
41 -0.15
42 0.08
43 0.08
5 -0.68
52 0.4
53 0.4
54 0.15
55 0.15
56 0.15
57 0.15
58 0.15
59 0.15
6 -0.16
60 0.15
61 0.45
62 0.45
63 0.45
64 0.45
65 0.45
66 0.45
67 0.45
7 -0.57
8 -0.57
9 -0.53

> <PUBCHEM_EFFECTIVE_ROTOR_COUNT>
7.2

> <PUBCHEM_PHARMACOPHORE_FEATURES>
21
1 1 acceptor
1 10 donor
1 11 donor
1 12 donor
1 13 donor
1 14 donor
1 15 donor
1 3 acceptor
1 4 acceptor
1 4 donor
1 5 acceptor
1 5 donor
1 6 acceptor
1 7 acceptor
1 8 acceptor
1 9 donor
6 1 16 17 18 19 20 rings
6 26 28 30 33 36 37 rings
6 27 31 32 38 39 42 rings
6 29 34 35 40 41 43 rings
6 6 22 24 25 26 28 rings

> <PUBCHEM_HEAVY_ATOM_COUNT>
43

> <PUBCHEM_ATOM_DEF_STEREO_COUNT>
5

> <PUBCHEM_ATOM_UDEF_STEREO_COUNT>
0

> <PUBCHEM_BOND_DEF_STEREO_COUNT>
0

> <PUBCHEM_BOND_UDEF_STEREO_COUNT>
0

> <PUBCHEM_ISOTOPIC_ATOM_COUNT>
0

> <PUBCHEM_COMPONENT_COUNT>
1

> <PUBCHEM_CACTVS_TAUTO_COUNT>
998

> <PUBCHEM_CONFORMER_ID>
0099117A00000001

> <PUBCHEM_MMFF94_ENERGY>
136.7531

> <PUBCHEM_FEATURE_SELFOVERLAP>
106.675

> <PUBCHEM_SHAPE_FINGERPRINT>
10556698 54 17102782961418139551
10622 236 18272656765697146583
11069576 57 18126566966554083150
11093857 51 17329125383958476261
11285246 1 18186515519029462979
11377469 6 18339938047148906675
11445158 3 17537485938088281227
11763715 3 17845388797663428617
11966995 178 17315882652088779391
12160290 23 17315911058369548856
12166972 35 18341890835692654535
131258 38 17484774336966682406
13911987 19 16966636212654213233
14020679 6 7997387439269866326
14068700 675 18201432567128918382
14114206 34 17459201694149051464
14289585 56 17896315806089528877
14674994 50 18123194506641544956
18603816 31 17694498144645599294
19319366 153 17474979964790445930
20775438 99 17971737016312318455
21716022 299 18128256894435170531
25019877 29 17551254873195277153
376196 1 16666812526128197021
4017518 198 17410511891423251191
44880168 125 17696492684560917190
5080951 261 17697573534756251806
5081480 168 17967534609982686421
508180 173 18040712550276553237
59025328 239 18409443709158282798
6677587 24 17036647551233382183
9831232 110 17481688077507509679

> <PUBCHEM_SHAPE_MULTIPOLES>
796.88
11.53
6.8
3.66
0.15
5.87
2.49
-17.09
-8.35
2.09
-4.73
-3.6
1.62
-4.37

> <PUBCHEM_SHAPE_SELFOVERLAP>
1770.47

> <PUBCHEM_SHAPE_VOLUME>
420.3

> <PUBCHEM_COORDINATE_TYPE>
2
5
10

$$$$
