100927727
  -OEChem-03052615063D

 43 46  0     0  0  0  0  0  0999 V2000
   -1.6098   -3.9937   -0.0705 O   0  0  0  0  0  0  0  0  0  0  0  0
    2.6661   -3.2961   -0.2901 O   0  0  0  0  0  0  0  0  0  0  0  0
    2.6459    3.1000    0.1254 O   0  0  0  0  0  0  0  0  0  0  0  0
    4.7567    1.3166   -0.1231 O   0  0  0  0  0  0  0  0  0  0  0  0
   -3.0654   -2.2209    0.1398 O   0  0  0  0  0  0  0  0  0  0  0  0
   -3.9501    2.1640   -1.9312 O   0  0  0  0  0  0  0  0  0  0  0  0
   -4.8907    2.8656    0.5883 O   0  0  0  0  0  0  0  0  0  0  0  0
   -0.4885   -0.5673    0.0838 C   0  0  0  0  0  0  0  0  0  0  0  0
   -0.6860   -1.9337    0.0071 C   0  0  0  0  0  0  0  0  0  0  0  0
    0.3516   -2.8302   -0.1166 C   0  0  0  0  0  0  0  0  0  0  0  0
    0.8298   -0.0866    0.0322 C   0  0  0  0  0  0  0  0  0  0  0  0
    1.9145   -1.0036   -0.0952 C   0  0  0  0  0  0  0  0  0  0  0  0
    1.6599   -2.3858   -0.1694 C   0  0  0  0  0  0  0  0  0  0  0  0
   -0.1791   -4.2039   -0.1737 C   0  0  0  0  0  0  0  0  0  0  0  0
   -1.6294    0.3237    0.2114 C   0  0  0  0  0  0  0  0  0  0  0  0
   -1.9406   -2.6685    0.0379 C   0  0  0  0  0  0  0  0  0  0  0  0
    1.1009    1.2885    0.1044 C   0  0  0  0  0  0  0  0  0  0  0  0
    3.2261   -0.5070   -0.1450 C   0  0  0  0  0  0  0  0  0  0  0  0
    2.4132    1.7594    0.0526 C   0  0  0  0  0  0  0  0  0  0  0  0
    3.4723    0.8645   -0.0715 C   0  0  0  0  0  0  0  0  0  0  0  0
   -2.2525    0.8269   -0.9307 C   0  0  0  0  0  0  0  0  0  0  0  0
   -2.1021    0.6750    1.4758 C   0  0  0  0  0  0  0  0  0  0  0  0
   -3.3484    1.6812   -0.8083 C   0  0  0  0  0  0  0  0  0  0  0  0
   -3.1979    1.5295    1.5981 C   0  0  0  0  0  0  0  0  0  0  0  0
   -3.8211    2.0325    0.4561 C   0  0  0  0  0  0  0  0  0  0  0  0
    2.6779    3.8194   -1.1056 C   0  0  0  0  0  0  0  0  0  0  0  0
    5.4466    1.4502    1.1179 C   0  0  0  0  0  0  0  0  0  0  0  0
    0.0319   -4.6986   -1.1255 H   0  0  0  0  0  0  0  0  0  0  0  0
    0.1441   -4.8166    0.6721 H   0  0  0  0  0  0  0  0  0  0  0  0
    0.3086    2.0269    0.2031 H   0  0  0  0  0  0  0  0  0  0  0  0
    4.0737   -1.1827   -0.2428 H   0  0  0  0  0  0  0  0  0  0  0  0
   -1.8860    0.5538   -1.9182 H   0  0  0  0  0  0  0  0  0  0  0  0
   -1.6280    0.2912    2.3760 H   0  0  0  0  0  0  0  0  0  0  0  0
    2.2967   -4.1940   -0.3254 H   0  0  0  0  0  0  0  0  0  0  0  0
   -3.5559    1.7949    2.5893 H   0  0  0  0  0  0  0  0  0  0  0  0
    2.8789    4.8708   -0.8828 H   0  0  0  0  0  0  0  0  0  0  0  0
    1.7123    3.7481   -1.6164 H   0  0  0  0  0  0  0  0  0  0  0  0
    3.4747    3.4403   -1.7532 H   0  0  0  0  0  0  0  0  0  0  0  0
    4.9333    2.1643    1.7695 H   0  0  0  0  0  0  0  0  0  0  0  0
    5.5305    0.4793    1.6164 H   0  0  0  0  0  0  0  0  0  0  0  0
    6.4527    1.8257    0.9118 H   0  0  0  0  0  0  0  0  0  0  0  0
   -3.4891    1.8150   -2.7132 H   0  0  0  0  0  0  0  0  0  0  0  0
   -5.0752    2.9964    1.5343 H   0  0  0  0  0  0  0  0  0  0  0  0
  1 14  1  0  0  0  0
  1 16  1  0  0  0  0
  2 13  1  0  0  0  0
  2 34  1  0  0  0  0
  3 19  1  0  0  0  0
  3 26  1  0  0  0  0
  4 20  1  0  0  0  0
  4 27  1  0  0  0  0
  5 16  2  0  0  0  0
  6 23  1  0  0  0  0
  6 42  1  0  0  0  0
  7 25  1  0  0  0  0
  7 43  1  0  0  0  0
  8  9  2  0  0  0  0
  8 11  1  0  0  0  0
  8 15  1  0  0  0  0
  9 10  1  0  0  0  0
  9 16  1  0  0  0  0
 10 13  2  0  0  0  0
 10 14  1  0  0  0  0
 11 12  1  0  0  0  0
 11 17  2  0  0  0  0
 12 13  1  0  0  0  0
 12 18  2  0  0  0  0
 14 28  1  0  0  0  0
 14 29  1  0  0  0  0
 15 21  2  0  0  0  0
 15 22  1  0  0  0  0
 17 19  1  0  0  0  0
 17 30  1  0  0  0  0
 18 20  1  0  0  0  0
 18 31  1  0  0  0  0
 19 20  2  0  0  0  0
 21 23  1  0  0  0  0
 21 32  1  0  0  0  0
 22 24  2  0  0  0  0
 22 33  1  0  0  0  0
 23 25  2  0  0  0  0
 24 25  1  0  0  0  0
 24 35  1  0  0  0  0
 26 36  1  0  0  0  0
 26 37  1  0  0  0  0
 26 38  1  0  0  0  0
 27 39  1  0  0  0  0
 27 40  1  0  0  0  0
 27 41  1  0  0  0  0
M  END
> <PUBCHEM_COMPOUND_CID>
100927727

> <PUBCHEM_CONFORMER_RMSD>
0.8

> <PUBCHEM_CONFORMER_DIVERSEORDER>
1
2

> <PUBCHEM_MMFF94_PARTIAL_CHARGES>
31
1 -0.43
10 -0.14
13 0.08
14 0.42
16 0.63
17 -0.15
18 -0.15
19 0.08
2 -0.53
20 0.08
21 -0.15
22 -0.15
23 0.08
24 -0.15
25 0.08
26 0.28
27 0.28
3 -0.36
30 0.15
31 0.15
32 0.15
33 0.15
34 0.45
35 0.15
4 -0.36
42 0.45
43 0.45
5 -0.57
6 -0.53
7 -0.53
9 0.09

> <PUBCHEM_EFFECTIVE_ROTOR_COUNT>
3.4

> <PUBCHEM_PHARMACOPHORE_FEATURES>
10
1 2 donor
1 3 acceptor
1 4 acceptor
1 5 acceptor
1 6 donor
1 7 donor
5 1 9 10 14 16 rings
6 11 12 17 18 19 20 rings
6 15 21 22 23 24 25 rings
6 8 9 10 11 12 13 rings

> <PUBCHEM_HEAVY_ATOM_COUNT>
27

> <PUBCHEM_ATOM_DEF_STEREO_COUNT>
0

> <PUBCHEM_ATOM_UDEF_STEREO_COUNT>
0

> <PUBCHEM_BOND_DEF_STEREO_COUNT>
0

> <PUBCHEM_BOND_UDEF_STEREO_COUNT>
0

> <PUBCHEM_ISOTOPIC_ATOM_COUNT>
0

> <PUBCHEM_COMPONENT_COUNT>
1

> <PUBCHEM_CACTVS_TAUTO_COUNT>
96

> <PUBCHEM_CONFORMER_ID>
060408EF00000001

> <PUBCHEM_MMFF94_ENERGY>
108.3213

> <PUBCHEM_FEATURE_SELFOVERLAP>
50.873

> <PUBCHEM_SHAPE_FINGERPRINT>
10165383 225 18264513752532773957
10411042 1 17403174193581575990
10670039 82 17470743559991498340
10871710 139 17468497248454394525
10967382 1 18051135787348338194
1100329 8 18267023843369508114
11582403 64 17025122204469060757
11725454 13 17024568029149669165
12107183 9 18336253571447751536
12173636 292 18196372743350757244
12236239 1 17199092320173229723
12403260 363 18193548085594842774
12553582 1 17619071633594012919
12643181 29 18412549787433056278
12788726 201 17834118919769810568
13004483 165 17762335116653852867
13140716 1 18337955563127914098
13583140 156 17458056079904743345
138480 1 17618507579690850675
13911987 19 17903373519240255278
14178342 30 18340199799899089482
14790565 3 18124328344195823465
16945 1 17907020577581517443
17138139 8 17699249387886521887
1813 80 16978719317420918351
19930381 70 18193558853157345409
20510252 161 17909551992824452658
20642791 105 18267854172168761560
20739085 24 17977404749677243896
21033648 29 17532376353330718253
22182313 1 17987534743988663110
22907989 373 17978223086696107613
2334 1 18411703170904233538
23558518 356 18335422421439221786
23559900 14 18273223002381327892
23566358 2 18343588442653475295
238 59 17539655072987641383
2748010 2 18339092496721324326
283562 15 18122901194639917034
335352 9 18339645517353546102
350125 39 18266464402256109360
3886686 26 18123434342527208122
474 4 18198059184098066137
633830 44 17915749660903235861
6443956 14 17472988294065788655

> <PUBCHEM_SHAPE_MULTIPOLES>
514.56
8.16
5.25
1.08
2.58
3.42
-0.01
-8.29
-0.88
-0.61
0.85
-0.75
-0.82
0.01

> <PUBCHEM_SHAPE_SELFOVERLAP>
1163.481

> <PUBCHEM_SHAPE_VOLUME>
274.6

> <PUBCHEM_COORDINATE_TYPE>
2
5
10

$$$$
