100918
  -OEChem-03052615003D

 46 47  0     0  0  0  0  0  0999 V2000
    3.2639   -1.1436   -0.3135 S   0  0  0  0  0  0  0  0  0  0  0  0
   -2.7567   -3.5126   -0.1517 O   0  0  0  0  0  0  0  0  0  0  0  0
    3.8624    3.6494    0.1554 O   0  5  0  0  0  0  0  0  0  0  0  0
    1.7597    3.0525   -0.0766 O   0  0  0  0  0  0  0  0  0  0  0  0
    7.0809   -0.7065    0.0519 O   0  5  0  0  0  0  0  0  0  0  0  0
    5.8161   -2.4848   -0.2118 O   0  0  0  0  0  0  0  0  0  0  0  0
   -5.0060    0.6350   -0.1747 N   0  0  0  0  0  0  0  0  0  0  0  0
   -0.9860   -2.0168    0.2761 N   0  0  0  0  0  0  0  0  0  0  0  0
    0.5140    0.3437    0.7273 N   0  0  0  0  0  0  0  0  0  0  0  0
    1.1297    0.4241   -0.3605 N   0  0  0  0  0  0  0  0  0  0  0  0
    2.9808    2.7671    0.0031 N   0  3  0  0  0  0  0  0  0  0  0  0
    5.9442   -1.2354   -0.0917 N   0  3  0  0  0  0  0  0  0  0  0  0
   -3.6164    0.5556    0.0521 C   0  0  0  0  0  0  0  0  0  0  0  0
   -5.5244    1.3879   -1.2995 C   0  0  0  0  0  0  0  0  0  0  0  0
   -5.9337   -0.0468    0.7061 C   0  0  0  0  0  0  0  0  0  0  0  0
   -2.9798   -0.6855    0.0543 C   0  0  0  0  0  0  0  0  0  0  0  0
   -2.8787    1.7184    0.2743 C   0  0  0  0  0  0  0  0  0  0  0  0
   -1.6053   -0.7639    0.2785 C   0  0  0  0  0  0  0  0  0  0  0  0
   -5.6245    0.4969   -2.5228 C   0  0  0  0  0  0  0  0  0  0  0  0
   -6.3191    0.8584    1.8602 C   0  0  0  0  0  0  0  0  0  0  0  0
   -0.8675    0.3988    0.5008 C   0  0  0  0  0  0  0  0  0  0  0  0
   -1.5042    1.6399    0.4987 C   0  0  0  0  0  0  0  0  0  0  0  0
   -1.5750   -3.2699    0.0707 C   0  0  0  0  0  0  0  0  0  0  0  0
    2.4864    0.3776   -0.2476 C   0  0  0  0  0  0  0  0  0  0  0  0
    3.3746    1.4127   -0.0813 C   0  0  0  0  0  0  0  0  0  0  0  0
   -0.5593   -4.3823    0.1469 C   0  0  0  0  0  0  0  0  0  0  0  0
    4.7202    0.9503   -0.0062 C   0  0  0  0  0  0  0  0  0  0  0  0
    4.8036   -0.4201   -0.1185 C   0  0  0  0  0  0  0  0  0  0  0  0
   -4.8989    2.2579   -1.5304 H   0  0  0  0  0  0  0  0  0  0  0  0
   -6.5193    1.7843   -1.0629 H   0  0  0  0  0  0  0  0  0  0  0  0
   -5.5150   -0.9804    1.0987 H   0  0  0  0  0  0  0  0  0  0  0  0
   -6.8396   -0.3295    0.1562 H   0  0  0  0  0  0  0  0  0  0  0  0
   -3.6034   -1.5457   -0.1413 H   0  0  0  0  0  0  0  0  0  0  0  0
   -3.3605    2.6925    0.2875 H   0  0  0  0  0  0  0  0  0  0  0  0
   -6.0365    1.0572   -3.3679 H   0  0  0  0  0  0  0  0  0  0  0  0
   -6.2753   -0.3639   -2.3370 H   0  0  0  0  0  0  0  0  0  0  0  0
   -4.6412    0.1149   -2.8171 H   0  0  0  0  0  0  0  0  0  0  0  0
   -7.0380    0.3548    2.5142 H   0  0  0  0  0  0  0  0  0  0  0  0
   -6.7776    1.7864    1.5028 H   0  0  0  0  0  0  0  0  0  0  0  0
   -5.4450    1.1279    2.4623 H   0  0  0  0  0  0  0  0  0  0  0  0
   -0.9423    2.5525    0.6773 H   0  0  0  0  0  0  0  0  0  0  0  0
    0.0177   -2.0018    0.4459 H   0  0  0  0  0  0  0  0  0  0  0  0
   -0.0855   -4.3843    1.1326 H   0  0  0  0  0  0  0  0  0  0  0  0
   -1.0515   -5.3456   -0.0122 H   0  0  0  0  0  0  0  0  0  0  0  0
    0.2028   -4.2408   -0.6245 H   0  0  0  0  0  0  0  0  0  0  0  0
    5.5858    1.5894    0.1238 H   0  0  0  0  0  0  0  0  0  0  0  0
  1 24  1  0  0  0  0
  1 28  1  0  0  0  0
  2 23  2  0  0  0  0
  3 11  1  0  0  0  0
  4 11  2  0  0  0  0
  5 12  1  0  0  0  0
  6 12  2  0  0  0  0
  7 13  1  0  0  0  0
  7 14  1  0  0  0  0
  7 15  1  0  0  0  0
  8 18  1  0  0  0  0
  8 23  1  0  0  0  0
  8 42  1  0  0  0  0
  9 10  2  0  0  0  0
  9 21  1  0  0  0  0
 10 24  1  0  0  0  0
 11 25  1  0  0  0  0
 12 28  1  0  0  0  0
 13 16  2  0  0  0  0
 13 17  1  0  0  0  0
 14 19  1  0  0  0  0
 14 29  1  0  0  0  0
 14 30  1  0  0  0  0
 15 20  1  0  0  0  0
 15 31  1  0  0  0  0
 15 32  1  0  0  0  0
 16 18  1  0  0  0  0
 16 33  1  0  0  0  0
 17 22  2  0  0  0  0
 17 34  1  0  0  0  0
 18 21  2  0  0  0  0
 19 35  1  0  0  0  0
 19 36  1  0  0  0  0
 19 37  1  0  0  0  0
 20 38  1  0  0  0  0
 20 39  1  0  0  0  0
 20 40  1  0  0  0  0
 21 22  1  0  0  0  0
 22 41  1  0  0  0  0
 23 26  1  0  0  0  0
 24 25  2  0  0  0  0
 25 27  1  0  0  0  0
 26 43  1  0  0  0  0
 26 44  1  0  0  0  0
 26 45  1  0  0  0  0
 27 28  2  0  0  0  0
 27 46  1  0  0  0  0
M  CHG  4   3  -1   5  -1  11   1  12   1
M  END
> <PUBCHEM_COMPOUND_CID>
100918

> <PUBCHEM_CONFORMER_RMSD>
1

> <PUBCHEM_CONFORMER_DIVERSEORDER>
1
15
9
12
7
11
6
14
3
2
10
13
4
5
8

> <PUBCHEM_MMFF94_PARTIAL_CHARGES>
31
1 -0.08
10 -0.13
11 0.96
12 0.96
13 0.1
14 0.37
15 0.37
16 -0.15
17 -0.15
18 0.12
2 -0.57
21 0.18
22 -0.15
23 0.57
24 0.17
25 0.08
26 0.06
27 -0.15
28 0.12
3 -0.52
33 0.15
34 0.15
4 -0.52
41 0.15
42 0.37
46 0.15
5 -0.52
6 -0.52
7 -0.84
8 -0.55
9 -0.18

> <PUBCHEM_EFFECTIVE_ROTOR_COUNT>
9

> <PUBCHEM_PHARMACOPHORE_FEATURES>
11
1 2 acceptor
1 3 acceptor
1 3 anion
1 4 acceptor
1 5 acceptor
1 5 anion
1 6 acceptor
1 7 cation
1 8 donor
5 1 24 25 27 28 rings
6 13 16 17 18 21 22 rings

> <PUBCHEM_HEAVY_ATOM_COUNT>
28

> <PUBCHEM_ATOM_DEF_STEREO_COUNT>
0

> <PUBCHEM_ATOM_UDEF_STEREO_COUNT>
0

> <PUBCHEM_BOND_DEF_STEREO_COUNT>
0

> <PUBCHEM_BOND_UDEF_STEREO_COUNT>
0

> <PUBCHEM_ISOTOPIC_ATOM_COUNT>
0

> <PUBCHEM_COMPONENT_COUNT>
1

> <PUBCHEM_CACTVS_TAUTO_COUNT>
5

> <PUBCHEM_CONFORMER_ID>
00018A3600000001

> <PUBCHEM_MMFF94_ENERGY>
83.0461

> <PUBCHEM_FEATURE_SELFOVERLAP>
55.983

> <PUBCHEM_SHAPE_FINGERPRINT>
11405975 8 18340491165916502888
11578080 2 17273124932861896690
12555020 224 18411414003693148479
12616971 3 17988927777665431621
12969540 114 18189035608549978125
13533116 47 18273776047586699056
14790565 3 18341342119651105825
14866123 147 18340210812333432275
15042514 8 18264213668064013539
15183329 4 18408880707222109660
15775530 1 17413294017119502497
17492 89 18194122043745278706
19958102 18 18262790882574142863
20286276 3 18121225530798327906
21033648 144 18340199816478338557
21033648 29 17748817540788381557
21065198 57 18338800130107841024
21267235 1 18338527352334468296
21344244 246 18270673152643055759
21781051 124 18042996274888468643
21859007 373 17896860115399744860
23402539 116 18201718436294905773
23559900 14 18342452681918114600
249057 3 18409731768509768670
3004659 81 18187087226932663022
3178227 256 18336844000053247987
335352 9 18411140238198564950
3383291 50 18411702066907799962
340366 18 18259989305212834924
4015057 19 18200867487235721769
4073 2 18263084482665061842
5104073 3 18339644571880265384
59755656 520 18411705391961053267
633830 44 16805884116938812888
9709674 26 18267027335272429930

> <PUBCHEM_SHAPE_MULTIPOLES>
520.84
15.73
3.94
1.12
4.85
3.08
0.43
-2.27
1.22
1.83
-0.13
-2.72
-0.32
0.39

> <PUBCHEM_SHAPE_SELFOVERLAP>
1082.998

> <PUBCHEM_SHAPE_VOLUME>
299

> <PUBCHEM_COORDINATE_TYPE>
2
5
10

$$$$
