101037563
  -OEChem-03052615043D

 52 56  0     1  0  0  0  0  0999 V2000
    4.3596    3.9311    1.2334 Cl  0  0  0  0  0  0  0  0  0  0  0  0
    3.9760   -3.1053    0.9396 O   0  0  0  0  0  0  0  0  0  0  0  0
   -0.7097   -0.5833    1.1980 N   0  0  0  0  0  0  0  0  0  0  0  0
    3.3404   -1.0039    0.0979 N   0  0  0  0  0  0  0  0  0  0  0  0
    1.6058   -3.4273   -1.4816 N   0  0  0  0  0  0  0  0  0  0  0  0
   -2.1559   -0.6898    1.3888 C   0  0  2  0  0  0  0  0  0  0  0  0
    1.9302   -1.3416    0.0996 C   0  0  0  0  0  0  0  0  0  0  0  0
   -0.3951   -0.3181   -0.2114 C   0  0  0  0  0  0  0  0  0  0  0  0
   -0.0378   -1.8003    1.6704 C   0  0  0  0  0  0  0  0  0  0  0  0
    1.1139   -0.1435   -0.4175 C   0  0  0  0  0  0  0  0  0  0  0  0
    1.4843   -1.6803    1.5334 C   0  0  0  0  0  0  0  0  0  0  0  0
   -2.7895   -1.7807    0.4686 C   0  0  0  0  0  0  0  0  0  0  0  0
   -2.9006    0.5605    0.9994 C   0  0  0  0  0  0  0  0  0  0  0  0
   -3.8779    0.2901    0.0765 C   0  0  0  0  0  0  0  0  0  0  0  0
   -3.8753   -1.0390   -0.2551 C   0  0  0  0  0  0  0  0  0  0  0  0
   -4.7573    1.2376   -0.4534 C   0  0  0  0  0  0  0  0  0  0  0  0
   -2.7563    1.8590    1.4623 C   0  0  0  0  0  0  0  0  0  0  0  0
    1.7485   -2.5097   -0.7861 C   0  0  0  0  0  0  0  0  0  0  0  0
   -4.7967   -1.5082   -1.1757 C   0  0  0  0  0  0  0  0  0  0  0  0
    3.7501    0.3114   -0.3570 C   0  0  0  0  0  0  0  0  0  0  0  0
   -4.6035    2.5565    0.0113 C   0  0  0  0  0  0  0  0  0  0  0  0
   -3.6087    2.8569    0.9614 C   0  0  0  0  0  0  0  0  0  0  0  0
   -5.6949    0.7615   -1.3885 C   0  0  0  0  0  0  0  0  0  0  0  0
   -5.7087   -0.6020   -1.7410 C   0  0  0  0  0  0  0  0  0  0  0  0
    4.2467   -1.9749    0.5409 C   0  0  0  0  0  0  0  0  0  0  0  0
    3.8470    1.3654    0.5515 C   0  0  0  0  0  0  0  0  0  0  0  0
    4.0469    0.5216   -1.7037 C   0  0  0  0  0  0  0  0  0  0  0  0
    4.2407    2.6299    0.1133 C   0  0  0  0  0  0  0  0  0  0  0  0
    4.4405    1.7861   -2.1419 C   0  0  0  0  0  0  0  0  0  0  0  0
    4.5376    2.8401   -1.2334 C   0  0  0  0  0  0  0  0  0  0  0  0
   -2.3898   -0.9066    2.4398 H   0  0  0  0  0  0  0  0  0  0  0  0
   -0.8584    0.6154   -0.5516 H   0  0  0  0  0  0  0  0  0  0  0  0
   -0.7241   -1.1005   -0.9005 H   0  0  0  0  0  0  0  0  0  0  0  0
   -0.3777   -2.6969    1.1385 H   0  0  0  0  0  0  0  0  0  0  0  0
   -0.2669   -1.9553    2.7322 H   0  0  0  0  0  0  0  0  0  0  0  0
    1.2871    0.0361   -1.4869 H   0  0  0  0  0  0  0  0  0  0  0  0
    1.3606    0.7810    0.1178 H   0  0  0  0  0  0  0  0  0  0  0  0
    1.8333   -0.8967    2.2213 H   0  0  0  0  0  0  0  0  0  0  0  0
    1.9126   -2.6190    1.9006 H   0  0  0  0  0  0  0  0  0  0  0  0
   -3.2357   -2.5609    1.0983 H   0  0  0  0  0  0  0  0  0  0  0  0
   -2.1310   -2.2898   -0.2370 H   0  0  0  0  0  0  0  0  0  0  0  0
   -2.0022    2.1081    2.2018 H   0  0  0  0  0  0  0  0  0  0  0  0
   -4.8167   -2.5544   -1.4628 H   0  0  0  0  0  0  0  0  0  0  0  0
   -5.2498    3.3499   -0.3551 H   0  0  0  0  0  0  0  0  0  0  0  0
   -3.5017    3.8788    1.3166 H   0  0  0  0  0  0  0  0  0  0  0  0
   -6.4127    1.4386   -1.8442 H   0  0  0  0  0  0  0  0  0  0  0  0
   -6.4369   -0.9582   -2.4653 H   0  0  0  0  0  0  0  0  0  0  0  0
    5.2871   -1.6106    0.4968 H   0  0  0  0  0  0  0  0  0  0  0  0
    3.6156    1.1971    1.6010 H   0  0  0  0  0  0  0  0  0  0  0  0
    3.9750   -0.2930   -2.4195 H   0  0  0  0  0  0  0  0  0  0  0  0
    4.6714    1.9497   -3.1904 H   0  0  0  0  0  0  0  0  0  0  0  0
    4.8455    3.8200   -1.5892 H   0  0  0  0  0  0  0  0  0  0  0  0
  1 28  1  0  0  0  0
  2 25  2  0  0  0  0
  3  6  1  0  0  0  0
  3  8  1  0  0  0  0
  3  9  1  0  0  0  0
  4  7  1  0  0  0  0
  4 20  1  0  0  0  0
  4 25  1  0  0  0  0
  5 18  3  0  0  0  0
  6 12  1  0  0  0  0
  6 13  1  0  0  0  0
  6 31  1  0  0  0  0
  7 10  1  0  0  0  0
  7 11  1  0  0  0  0
  7 18  1  0  0  0  0
  8 10  1  0  0  0  0
  8 32  1  0  0  0  0
  8 33  1  0  0  0  0
  9 11  1  0  0  0  0
  9 34  1  0  0  0  0
  9 35  1  0  0  0  0
 10 36  1  0  0  0  0
 10 37  1  0  0  0  0
 11 38  1  0  0  0  0
 11 39  1  0  0  0  0
 12 15  1  0  0  0  0
 12 40  1  0  0  0  0
 12 41  1  0  0  0  0
 13 14  1  0  0  0  0
 13 17  2  0  0  0  0
 14 15  1  0  0  0  0
 14 16  2  0  0  0  0
 15 19  2  0  0  0  0
 16 21  1  0  0  0  0
 16 23  1  0  0  0  0
 17 22  1  0  0  0  0
 17 42  1  0  0  0  0
 19 24  1  0  0  0  0
 19 43  1  0  0  0  0
 20 26  2  0  0  0  0
 20 27  1  0  0  0  0
 21 22  2  0  0  0  0
 21 44  1  0  0  0  0
 22 45  1  0  0  0  0
 23 24  2  0  0  0  0
 23 46  1  0  0  0  0
 24 47  1  0  0  0  0
 25 48  1  0  0  0  0
 26 28  1  0  0  0  0
 26 49  1  0  0  0  0
 27 29  2  0  0  0  0
 27 50  1  0  0  0  0
 28 30  2  0  0  0  0
 29 30  1  0  0  0  0
 29 51  1  0  0  0  0
 30 52  1  0  0  0  0
M  END
> <PUBCHEM_COMPOUND_CID>
101037563

> <PUBCHEM_CONFORMER_RMSD>
0.8

> <PUBCHEM_CONFORMER_DIVERSEORDER>
1
193
206
152
30
190
184
131
196
41
133
142
174
26
33
221
187
128
115
200
188
201
216
112
167
136
37
154
34
213
121
148
230
168
141
27
124
97
149
69
161
125
68
116
195
185
122
72
180
120
245
169
118
208
45
135
43
59
218
183
139
191
110
235
155
132
123
153
44
84
47
15
215
146
231
159
113
207
189
129
239
13
108
211
42
220
246
93
105
164
138
92
225
173
228
81
234
17
134
175
104
96
242
83
209
85
147
172
170
143
111
16
224
103
10
130
192
91
241
117
98
7
29
186
140
20
100
61
88
109
80
212
25
12
204
214
102
14
219
119
223
40
247
9
244
166
156
28
203
23
87
70
222
74
144
243
171
86
75
181
71
162
232
56
24
106
76
165
89
157
63
127
226
151
73
236
182
107
32
217
237
94
3
53
240
145
82
205
179
38
31
199
95
210
77
194
238
163
55
114
158
99
11
177
202
90
39
52
65
126
50
101
4
67
49
233
78
8
36
150
227
79
48
178
46
160
5
176
57
62
197
18
51
64
22
6
229
60
19
35
58
137
198
66
21
2
54

> <PUBCHEM_MMFF94_PARTIAL_CHARGES>
37
1 -0.18
12 0.14
13 -0.14
15 -0.14
17 -0.15
18 0.36
19 -0.15
2 -0.57
20 0.12
21 -0.15
22 -0.15
23 -0.15
24 -0.15
25 0.57
26 -0.15
27 -0.15
28 0.18
29 -0.15
3 -0.81
30 -0.15
4 -0.48
42 0.15
43 0.15
44 0.15
45 0.15
46 0.15
47 0.15
48 0.06
49 0.15
5 -0.56
50 0.15
51 0.15
52 0.15
6 0.41
7 0.5
8 0.27
9 0.27

> <PUBCHEM_EFFECTIVE_ROTOR_COUNT>
5.6

> <PUBCHEM_PHARMACOPHORE_FEATURES>
8
1 2 acceptor
1 3 cation
1 5 acceptor
5 6 12 13 14 15 rings
6 13 14 16 17 21 22 rings
6 14 15 16 19 23 24 rings
6 20 26 27 28 29 30 rings
6 3 7 8 9 10 11 rings

> <PUBCHEM_HEAVY_ATOM_COUNT>
30

> <PUBCHEM_ATOM_DEF_STEREO_COUNT>
0

> <PUBCHEM_ATOM_UDEF_STEREO_COUNT>
1

> <PUBCHEM_BOND_DEF_STEREO_COUNT>
0

> <PUBCHEM_BOND_UDEF_STEREO_COUNT>
0

> <PUBCHEM_ISOTOPIC_ATOM_COUNT>
0

> <PUBCHEM_COMPONENT_COUNT>
1

> <PUBCHEM_CACTVS_TAUTO_COUNT>
6

> <PUBCHEM_CONFORMER_ID>
0605B5FB00000001

> <PUBCHEM_MMFF94_ENERGY>
119.1105

> <PUBCHEM_FEATURE_SELFOVERLAP>
40.802

> <PUBCHEM_SHAPE_FINGERPRINT>
10692045 39 12974423528392983633
10928967 22 12319465359031850149
10940486 97 17267802970340486638
11089746 13 18187642453638464258
11331351 85 17689993436863718010
12616971 3 18339930290495504785
14187579 7 18272936033424839609
14251764 38 18410013208462388528
14528608 73 18341895224753156716
14739800 52 18339065103704448968
14848178 96 18113907069481571460
15064981 194 18269286686087228825
15082195 135 18272362032572617909
15289351 153 18342453786516598208
15669420 48 16557338465254989136
15849732 13 18201996591853019774
16120349 189 18047465918731425468
18681886 176 18201715125170766634
20567600 9 18335435564545290164
21033648 144 18187083966103023980
21033648 29 15864073169411643999
21709351 56 18341896234360796862
21860390 5 18267313032296815094
21968339 14 17917717941979732428
22393880 68 18201166515532436812
22907989 373 17489311854598939889
235170 7 17203341017101287149
23559900 14 18128535968399114514
27425 322 18263933125379711095
2838139 119 18410291458308919984
312425 83 18198913500469691415
34797466 226 17774727562181871757
3737641 26 10375057119478662828
376196 1 18333733550288387106
4280585 95 17196308321924700886
44317340 157 18334857187063728689
474 4 18040722467208118992
5104073 3 17894918416476749385
513202 73 12247409990630317779
5219985 9 17898849055595580034
5895379 119 17914058599108512584
6086070 43 17680405780788185942
6371009 1 18411130355843236048
6669772 16 16984601029966330929
6700243 42 16916800586406568045
67856867 119 18411693271035582978
9981440 41 18115869766150492394

> <PUBCHEM_SHAPE_MULTIPOLES>
598.44
13.61
4.04
1.76
5.16
1.09
0.3
7.34
5.01
-4.39
-0.64
-0.25
0.09
-1.19

> <PUBCHEM_SHAPE_SELFOVERLAP>
1324.547

> <PUBCHEM_SHAPE_VOLUME>
319.6

> <PUBCHEM_COORDINATE_TYPE>
2
5
10

$$$$
