101044443
  -OEChem-03052615083D

 39 41  0     1  0  0  0  0  0999 V2000
   -3.3778   -0.7032   -1.0310 O   0  0  0  0  0  0  0  0  0  0  0  0
    1.6342    2.0163    0.1456 O   0  0  0  0  0  0  0  0  0  0  0  0
    2.6253   -2.4282   -0.3780 O   0  0  0  0  0  0  0  0  0  0  0  0
   -0.4287    0.7950    0.5242 C   0  0  2  0  0  0  0  0  0  0  0  0
   -1.1275   -0.4033   -0.1418 C   0  0  2  0  0  0  0  0  0  0  0  0
   -1.1890    2.0275   -0.0230 C   0  0  1  0  0  0  0  0  0  0  0  0
   -2.5977    0.0363   -0.1076 C   0  0  1  0  0  0  0  0  0  0  0  0
   -2.5465    1.5051   -0.5135 C   0  0  0  0  0  0  0  0  0  0  0  0
    1.0257    0.7976    0.2113 C   0  0  0  0  0  0  0  0  0  0  0  0
   -0.7668   -1.7147    0.5299 C   0  0  0  0  0  0  0  0  0  0  0  0
   -1.3469    3.1200    1.0315 C   0  0  0  0  0  0  0  0  0  0  0  0
    1.9373   -0.2150   -0.0325 C   0  0  0  0  0  0  0  0  0  0  0  0
    0.4841   -2.2130    0.5486 C   0  0  0  0  0  0  0  0  0  0  0  0
   -1.8707   -2.5178    1.1705 C   0  0  0  0  0  0  0  0  0  0  0  0
    1.7440   -1.6523   -0.0147 C   0  0  0  0  0  0  0  0  0  0  0  0
    3.1687    0.4538   -0.3094 C   0  0  0  0  0  0  0  0  0  0  0  0
    2.9298    1.7990   -0.1802 C   0  0  0  0  0  0  0  0  0  0  0  0
   -4.7693   -0.5511   -0.7809 C   0  0  0  0  0  0  0  0  0  0  0  0
    4.4718   -0.1520   -0.6489 C   0  0  0  0  0  0  0  0  0  0  0  0
   -0.5475    0.7369    1.6156 H   0  0  0  0  0  0  0  0  0  0  0  0
   -0.8327   -0.4952   -1.1995 H   0  0  0  0  0  0  0  0  0  0  0  0
   -0.6663    2.4644   -0.8843 H   0  0  0  0  0  0  0  0  0  0  0  0
   -3.0025   -0.0513    0.9095 H   0  0  0  0  0  0  0  0  0  0  0  0
   -3.3940    2.0625   -0.0996 H   0  0  0  0  0  0  0  0  0  0  0  0
   -2.6117    1.6060   -1.6045 H   0  0  0  0  0  0  0  0  0  0  0  0
   -1.9059    2.7569    1.9007 H   0  0  0  0  0  0  0  0  0  0  0  0
   -1.8875    3.9782    0.6186 H   0  0  0  0  0  0  0  0  0  0  0  0
   -0.3715    3.4739    1.3798 H   0  0  0  0  0  0  0  0  0  0  0  0
    0.6397   -3.1966    0.9915 H   0  0  0  0  0  0  0  0  0  0  0  0
   -2.6322   -2.7881    0.4331 H   0  0  0  0  0  0  0  0  0  0  0  0
   -1.5054   -3.4534    1.6086 H   0  0  0  0  0  0  0  0  0  0  0  0
   -2.3392   -1.9504    1.9806 H   0  0  0  0  0  0  0  0  0  0  0  0
    3.5422    2.6835   -0.2800 H   0  0  0  0  0  0  0  0  0  0  0  0
   -5.0231   -0.9110    0.2211 H   0  0  0  0  0  0  0  0  0  0  0  0
   -5.3137   -1.1563   -1.5111 H   0  0  0  0  0  0  0  0  0  0  0  0
   -5.0799    0.4908   -0.8998 H   0  0  0  0  0  0  0  0  0  0  0  0
    4.8066   -0.8246    0.1473 H   0  0  0  0  0  0  0  0  0  0  0  0
    4.4033   -0.7205   -1.5819 H   0  0  0  0  0  0  0  0  0  0  0  0
    5.2455    0.6116   -0.7832 H   0  0  0  0  0  0  0  0  0  0  0  0
  1  7  1  0  0  0  0
  1 18  1  0  0  0  0
  2  9  1  0  0  0  0
  2 17  1  0  0  0  0
  3 15  2  0  0  0  0
  4  5  1  0  0  0  0
  4  6  1  0  0  0  0
  4  9  1  0  0  0  0
  4 20  1  0  0  0  0
  5  7  1  0  0  0  0
  5 10  1  0  0  0  0
  5 21  1  0  0  0  0
  6  8  1  0  0  0  0
  6 11  1  0  0  0  0
  6 22  1  0  0  0  0
  7  8  1  0  0  0  0
  7 23  1  0  0  0  0
  8 24  1  0  0  0  0
  8 25  1  0  0  0  0
  9 12  2  0  0  0  0
 10 13  2  0  0  0  0
 10 14  1  0  0  0  0
 11 26  1  0  0  0  0
 11 27  1  0  0  0  0
 11 28  1  0  0  0  0
 12 15  1  0  0  0  0
 12 16  1  0  0  0  0
 13 15  1  0  0  0  0
 13 29  1  0  0  0  0
 14 30  1  0  0  0  0
 14 31  1  0  0  0  0
 14 32  1  0  0  0  0
 16 17  2  0  0  0  0
 16 19  1  0  0  0  0
 17 33  1  0  0  0  0
 18 34  1  0  0  0  0
 18 35  1  0  0  0  0
 18 36  1  0  0  0  0
 19 37  1  0  0  0  0
 19 38  1  0  0  0  0
 19 39  1  0  0  0  0
M  END
> <PUBCHEM_COMPOUND_CID>
101044443

> <PUBCHEM_CONFORMER_RMSD>
0.6

> <PUBCHEM_CONFORMER_DIVERSEORDER>
1
13
6
14
8
4
12
16
9
3
15
2
17
19
5
20
7
10
11
18

> <PUBCHEM_MMFF94_PARTIAL_CHARGES>
18
1 -0.56
10 -0.28
12 -0.09
13 -0.14
14 0.14
15 0.64
16 -0.18
17 -0.01
18 0.28
19 0.18
2 -0.28
29 0.15
3 -0.57
33 0.15
4 0.18
5 0.14
7 0.28
9 -0.04

> <PUBCHEM_EFFECTIVE_ROTOR_COUNT>
1.6

> <PUBCHEM_PHARMACOPHORE_FEATURES>
6
1 1 acceptor
1 2 acceptor
1 3 acceptor
5 2 9 12 16 17 rings
5 4 5 6 7 8 rings
7 4 5 9 10 12 13 15 rings

> <PUBCHEM_HEAVY_ATOM_COUNT>
19

> <PUBCHEM_ATOM_DEF_STEREO_COUNT>
0

> <PUBCHEM_ATOM_UDEF_STEREO_COUNT>
4

> <PUBCHEM_BOND_DEF_STEREO_COUNT>
0

> <PUBCHEM_BOND_UDEF_STEREO_COUNT>
0

> <PUBCHEM_ISOTOPIC_ATOM_COUNT>
0

> <PUBCHEM_COMPONENT_COUNT>
1

> <PUBCHEM_CACTVS_TAUTO_COUNT>
27

> <PUBCHEM_CONFORMER_ID>
0605D0DB00000001

> <PUBCHEM_MMFF94_ENERGY>
51.8888

> <PUBCHEM_FEATURE_SELFOVERLAP>
30.503

> <PUBCHEM_SHAPE_FINGERPRINT>
10756046 5 18194674878686331597
10759866 29 17677614336178051160
10967382 1 18410011073863291536
13140716 1 18265900352864718816
13380535 76 18335979843843176770
13544592 271 18122896800872022953
13583140 156 16370727058075707632
14115302 16 18114750441949303676
14178342 30 17907560450754285496
15196674 1 18338515231504008422
15442244 35 18123751946293629098
16945 1 18410301315142547064
17349148 13 18336809928067379170
17357779 13 17685766222666425039
200 152 17988924491619239589
20510252 161 18193285306537048800
20588541 1 18263922305771491041
20905425 154 18271241599858313404
21267235 1 18412552010944168799
21501502 16 18267306430531011124
21634736 98 18268705022032585454
22112679 90 17470151571030263979
22182313 1 17977668941457122336
2334 1 17905893934918983216
23402539 116 18412257328980030740
23493267 7 17531244010550334355
23558518 356 18267593398760545297
23559900 14 18338514278718120504
23566358 2 18267299846245894159
25 1 18334854983043918350
2748010 2 17977950412175730448
2871803 45 18411410722380442909
3323516 105 18338506543354991367
352729 6 18335991972952159506
353137 74 18335978692744286809
5262128 65 18057893450115547830
7832392 63 17836362644733749409
8809292 202 18262242226123734394
9709674 26 18412551985490973614

> <PUBCHEM_SHAPE_MULTIPOLES>
373.4
6.47
3.12
0.91
0.08
0.28
-0.07
-0.43
2.49
0.36
-0.98
0.46
-0.06
0.04

> <PUBCHEM_SHAPE_SELFOVERLAP>
803.97

> <PUBCHEM_SHAPE_VOLUME>
208.4

> <PUBCHEM_COORDINATE_TYPE>
2
5
10

$$$$
