101019951
  -OEChem-03052615063D

 36 38  0     1  0  0  0  0  0999 V2000
    4.2592   -2.2019    0.2179 S   0  0  0  0  0  0  0  0  0  0  0  0
   -0.6189   -0.2072   -0.3745 O   0  0  0  0  0  0  0  0  0  0  0  0
   -0.0874    3.7954    0.3505 O   0  0  0  0  0  0  0  0  0  0  0  0
    2.4940    3.4697    0.2479 O   0  0  0  0  0  0  0  0  0  0  0  0
    4.0560   -0.8976   -0.7623 O   0  0  0  0  0  0  0  0  0  0  0  0
   -6.6447   -1.9299   -0.2196 O   0  0  0  0  0  0  0  0  0  0  0  0
    5.8536   -2.5326    0.1026 O   0  0  0  0  0  0  0  0  0  0  0  0
    3.9828   -1.8108    1.5878 O   0  0  0  0  0  0  0  0  0  0  0  0
    3.5420   -3.3152   -0.3763 O   0  0  0  0  0  0  0  0  0  0  0  0
   -1.5804    0.5335    0.3932 C   0  0  1  0  0  0  0  0  0  0  0  0
   -1.6232    1.9957   -0.0462 C   0  0  0  0  0  0  0  0  0  0  0  0
    0.8873    1.6838   -0.0547 C   0  0  0  0  0  0  0  0  0  0  0  0
   -2.9338   -0.1254    0.2297 C   0  0  0  0  0  0  0  0  0  0  0  0
   -0.2552    2.6021    0.1287 C   0  0  0  0  0  0  0  0  0  0  0  0
    0.6397    0.3335   -0.3186 C   0  0  0  0  0  0  0  0  0  0  0  0
    2.1981    2.1651   -0.0088 C   0  0  0  0  0  0  0  0  0  0  0  0
    1.7058   -0.5308   -0.5707 C   0  0  0  0  0  0  0  0  0  0  0  0
   -3.5779   -0.6808    1.3354 C   0  0  0  0  0  0  0  0  0  0  0  0
   -3.5370   -0.1766   -1.0270 C   0  0  0  0  0  0  0  0  0  0  0  0
    3.0155   -0.0519   -0.5269 C   0  0  0  0  0  0  0  0  0  0  0  0
    3.2609    1.2916   -0.2418 C   0  0  0  0  0  0  0  0  0  0  0  0
   -4.8247   -1.2875    1.1844 C   0  0  0  0  0  0  0  0  0  0  0  0
   -4.7838   -0.7833   -1.1781 C   0  0  0  0  0  0  0  0  0  0  0  0
   -5.4277   -1.3388   -0.0724 C   0  0  0  0  0  0  0  0  0  0  0  0
   -1.2805    0.4736    1.4499 H   0  0  0  0  0  0  0  0  0  0  0  0
   -2.3403    2.5564    0.5639 H   0  0  0  0  0  0  0  0  0  0  0  0
   -1.8885    2.1128   -1.1029 H   0  0  0  0  0  0  0  0  0  0  0  0
    1.5048   -1.5731   -0.8028 H   0  0  0  0  0  0  0  0  0  0  0  0
   -3.1212   -0.6487    2.3209 H   0  0  0  0  0  0  0  0  0  0  0  0
   -3.0468    0.2397   -1.9027 H   0  0  0  0  0  0  0  0  0  0  0  0
    4.2840    1.6585   -0.2087 H   0  0  0  0  0  0  0  0  0  0  0  0
   -5.3216   -1.7183    2.0494 H   0  0  0  0  0  0  0  0  0  0  0  0
   -5.2420   -0.8189   -2.1629 H   0  0  0  0  0  0  0  0  0  0  0  0
    1.6887    3.9657    0.4601 H   0  0  0  0  0  0  0  0  0  0  0  0
   -6.9110   -1.8748   -1.1535 H   0  0  0  0  0  0  0  0  0  0  0  0
    6.1643   -3.3003    0.6376 H   0  0  0  0  0  0  0  0  0  0  0  0
  1  5  1  0  0  0  0
  1  7  1  0  0  0  0
  1  8  2  0  0  0  0
  1  9  2  0  0  0  0
  2 10  1  0  0  0  0
  2 15  1  0  0  0  0
  3 14  2  0  0  0  0
  4 16  1  0  0  0  0
  4 34  1  0  0  0  0
  5 20  1  0  0  0  0
  6 24  1  0  0  0  0
  6 35  1  0  0  0  0
  7 36  1  0  0  0  0
 10 11  1  0  0  0  0
 10 13  1  0  0  0  0
 10 25  1  0  0  0  0
 11 14  1  0  0  0  0
 11 26  1  0  0  0  0
 11 27  1  0  0  0  0
 12 14  1  0  0  0  0
 12 15  1  0  0  0  0
 12 16  2  0  0  0  0
 13 18  2  0  0  0  0
 13 19  1  0  0  0  0
 15 17  2  0  0  0  0
 16 21  1  0  0  0  0
 17 20  1  0  0  0  0
 17 28  1  0  0  0  0
 18 22  1  0  0  0  0
 18 29  1  0  0  0  0
 19 23  2  0  0  0  0
 19 30  1  0  0  0  0
 20 21  2  0  0  0  0
 21 31  1  0  0  0  0
 22 24  2  0  0  0  0
 22 32  1  0  0  0  0
 23 24  1  0  0  0  0
 23 33  1  0  0  0  0
M  END
> <PUBCHEM_COMPOUND_CID>
101019951

> <PUBCHEM_CONFORMER_RMSD>
0.6

> <PUBCHEM_CONFORMER_DIVERSEORDER>
1
21
13
12
8
6
20
19
17
14
18
4
9
2
11
15
7
10
16
3
5

> <PUBCHEM_MMFF94_PARTIAL_CHARGES>
33
1 1.67
10 0.42
11 0.06
12 0.09
13 -0.14
14 0.42
15 0.08
16 0.08
17 -0.15
18 -0.15
19 -0.15
2 -0.36
20 0.08
21 -0.15
22 -0.15
23 -0.15
24 0.08
28 0.15
29 0.15
3 -0.57
30 0.15
31 0.15
32 0.15
33 0.15
34 0.45
35 0.45
36 0.5
4 -0.53
5 -0.27
6 -0.53
7 -0.68
8 -0.65
9 -0.65

> <PUBCHEM_EFFECTIVE_ROTOR_COUNT>
3.6

> <PUBCHEM_PHARMACOPHORE_FEATURES>
11
1 2 acceptor
1 3 acceptor
1 4 donor
1 6 donor
1 7 acceptor
1 8 acceptor
1 9 acceptor
4 1 7 8 9 anion
6 12 15 16 17 20 21 rings
6 13 18 19 22 23 24 rings
6 2 10 11 12 14 15 rings

> <PUBCHEM_HEAVY_ATOM_COUNT>
24

> <PUBCHEM_ATOM_DEF_STEREO_COUNT>
1

> <PUBCHEM_ATOM_UDEF_STEREO_COUNT>
0

> <PUBCHEM_BOND_DEF_STEREO_COUNT>
0

> <PUBCHEM_BOND_UDEF_STEREO_COUNT>
0

> <PUBCHEM_ISOTOPIC_ATOM_COUNT>
0

> <PUBCHEM_COMPONENT_COUNT>
1

> <PUBCHEM_CACTVS_TAUTO_COUNT>
18

> <PUBCHEM_CONFORMER_ID>
0605712F00000001

> <PUBCHEM_MMFF94_ENERGY>
67.6441

> <PUBCHEM_FEATURE_SELFOVERLAP>
55.911

> <PUBCHEM_SHAPE_FINGERPRINT>
10411042 1 18411700946353059398
11796584 16 17458337572287897267
12107183 9 18199201603024389473
12236239 1 17416980607009838845
12363563 72 18410019809969319807
12553582 1 18342460326801788966
12760667 363 18335705996733762587
13134695 92 18340486776534338061
13140716 1 18269840826150330625
13533116 47 18339926021356157955
13540713 5 18267605557940229864
13544653 18 18408327691791989581
13631057 29 18263929848251300354
13782708 43 18040995189907280299
13911852 28 18411420574940824823
13955234 65 18126285491646450817
14178342 30 17701833076269755745
14767858 380 18263384589331274364
14790565 3 17545608215098073804
14866123 147 18050290263185919865
15042514 8 18123758551769253233
15352361 1 18409731720716839898
15927050 60 17981607384150962262
17349148 13 17917999412196998919
17492 89 18267023847896382566
1813 80 18201454574778531925
18222031 100 18202286900437488326
18681886 176 15552776267834070129
193927 3 18335710394690726166
200 152 18058734740610895361
20028762 73 18130787871377009151
20369508 70 18408884053365779486
20645477 70 18335135435860565007
20832881 197 18335423456968782801
21033650 10 16081644479219606325
21065201 7 17095233757420256617
21267235 1 18271537488571397589
21279426 13 18188199928189000357
21478907 32 18410857616508186705
21703447 108 18337098025752077464
221490 88 18409168800870511300
22224240 67 17985259931682696784
22393880 68 17822280285069498011
23559900 14 17822294625374059477
23622692 118 18410855417463552812
25147074 1 18340786861245736792
3004659 81 18040434373766335646
312423 11 18337965518698146876
314194 84 18339929324117585991
3421961 26 18411982493996262352
345986 75 17846225466152019561
34797466 226 16588309457647080831
397830 11 10663545967748328039
4073 2 17974009745965730867
46194498 28 17459188654533441269
463206 1 18335986449524613787
465052 167 18342181080565140190
5104073 3 18272653424207049817
5309563 4 18339644442936761366
6034566 193 10159111987573669411
7064713 232 16773804692682900135
7288768 16 15691768913093445416
76465 3 18410575050498545358
7970288 3 18411418384428895839
8863177 126 18115600390661734635

> <PUBCHEM_SHAPE_MULTIPOLES>
450.8
12.34
3.69
1.01
8.36
1.67
-0.15
-13
-0.05
-4.5
-0.47
0.58
-0.36
-0.15

> <PUBCHEM_SHAPE_SELFOVERLAP>
978.805

> <PUBCHEM_SHAPE_VOLUME>
247.3

> <PUBCHEM_COORDINATE_TYPE>
2
5
10

$$$$
