101035251
  -OEChem-03052615043D

 54 56  0     1  0  0  0  0  0999 V2000
    1.7212    0.2442    0.8585 O   0  0  0  0  0  0  0  0  0  0  0  0
    2.8120   -1.2485   -2.3032 O   0  0  0  0  0  0  0  0  0  0  0  0
    5.2932   -0.7562   -0.9042 O   0  0  0  0  0  0  0  0  0  0  0  0
    5.0816    1.6743    0.7475 O   0  0  0  0  0  0  0  0  0  0  0  0
    2.7874    1.6297    2.4036 O   0  0  0  0  0  0  0  0  0  0  0  0
   -0.8133   -0.4389   -0.1951 N   0  0  1  0  0  0  0  0  0  0  0  0
   -1.8589   -1.3989    0.1539 C   0  0  0  0  0  0  0  0  0  0  0  0
   -1.6336   -1.9198    1.5775 C   0  0  0  0  0  0  0  0  0  0  0  0
   -1.8700   -2.5483   -0.8600 C   0  0  0  0  0  0  0  0  0  0  0  0
    1.6117   -0.1932   -0.4973 C   0  0  2  0  0  0  0  0  0  0  0  0
    0.4087   -1.1272   -0.5834 C   0  0  0  0  0  0  0  0  0  0  0  0
   -2.6647   -2.9838    1.9503 C   0  0  0  0  0  0  0  0  0  0  0  0
   -2.9002   -3.6120   -0.4842 C   0  0  0  0  0  0  0  0  0  0  0  0
    2.9038   -0.8925   -0.9263 C   0  0  2  0  0  0  0  0  0  0  0  0
   -2.6870   -4.1249    0.9372 C   0  0  0  0  0  0  0  0  0  0  0  0
    4.1104    0.0233   -0.7202 C   0  0  1  0  0  0  0  0  0  0  0  0
    4.1128    0.6280    0.6839 C   0  0  2  0  0  0  0  0  0  0  0  0
   -1.2755    0.4429   -1.2698 C   0  0  0  0  0  0  0  0  0  0  0  0
    2.7475    1.2175    1.0377 C   0  0  1  0  0  0  0  0  0  0  0  0
   -2.1611    1.5439   -0.7497 C   0  0  0  0  0  0  0  0  0  0  0  0
   -3.1644    2.0741   -1.5608 C   0  0  0  0  0  0  0  0  0  0  0  0
   -1.9778    2.0338    0.5433 C   0  0  0  0  0  0  0  0  0  0  0  0
   -3.9846    3.0943   -1.0789 C   0  0  0  0  0  0  0  0  0  0  0  0
   -2.7980    3.0539    1.0254 C   0  0  0  0  0  0  0  0  0  0  0  0
   -3.8013    3.5842    0.2142 C   0  0  0  0  0  0  0  0  0  0  0  0
   -2.8469   -0.9186    0.1521 H   0  0  0  0  0  0  0  0  0  0  0  0
   -0.6372   -2.3576    1.7040 H   0  0  0  0  0  0  0  0  0  0  0  0
   -1.7009   -1.0904    2.2929 H   0  0  0  0  0  0  0  0  0  0  0  0
   -2.1001   -2.1992   -1.8723 H   0  0  0  0  0  0  0  0  0  0  0  0
   -0.9198   -3.0910   -0.9134 H   0  0  0  0  0  0  0  0  0  0  0  0
    1.4639    0.6827   -1.1393 H   0  0  0  0  0  0  0  0  0  0  0  0
    0.6324   -1.9627    0.0898 H   0  0  0  0  0  0  0  0  0  0  0  0
    0.3475   -1.5224   -1.6058 H   0  0  0  0  0  0  0  0  0  0  0  0
    3.0451   -1.8197   -0.3576 H   0  0  0  0  0  0  0  0  0  0  0  0
   -3.6594   -2.5245    2.0046 H   0  0  0  0  0  0  0  0  0  0  0  0
   -2.4422   -3.3799    2.9476 H   0  0  0  0  0  0  0  0  0  0  0  0
   -2.8436   -4.4489   -1.1898 H   0  0  0  0  0  0  0  0  0  0  0  0
   -3.9087   -3.1893   -0.5722 H   0  0  0  0  0  0  0  0  0  0  0  0
   -3.4822   -4.8328    1.1968 H   0  0  0  0  0  0  0  0  0  0  0  0
   -1.7397   -4.6757    0.9880 H   0  0  0  0  0  0  0  0  0  0  0  0
    4.1405    0.8082   -1.4849 H   0  0  0  0  0  0  0  0  0  0  0  0
    4.4100   -0.1233    1.4252 H   0  0  0  0  0  0  0  0  0  0  0  0
   -1.7833   -0.1070   -2.0706 H   0  0  0  0  0  0  0  0  0  0  0  0
   -0.4461    0.9638   -1.7600 H   0  0  0  0  0  0  0  0  0  0  0  0
    2.5310    2.1076    0.4335 H   0  0  0  0  0  0  0  0  0  0  0  0
    2.6754   -0.4337   -2.8162 H   0  0  0  0  0  0  0  0  0  0  0  0
    5.3046   -1.4534   -0.2265 H   0  0  0  0  0  0  0  0  0  0  0  0
    4.8357    2.3528    0.0957 H   0  0  0  0  0  0  0  0  0  0  0  0
    2.1095    2.3180    2.5132 H   0  0  0  0  0  0  0  0  0  0  0  0
   -3.3162    1.7021   -2.5705 H   0  0  0  0  0  0  0  0  0  0  0  0
   -1.1940    1.6585    1.1953 H   0  0  0  0  0  0  0  0  0  0  0  0
   -4.7655    3.5076   -1.7105 H   0  0  0  0  0  0  0  0  0  0  0  0
   -2.6527    3.4388    2.0305 H   0  0  0  0  0  0  0  0  0  0  0  0
   -4.4391    4.3793    0.5891 H   0  0  0  0  0  0  0  0  0  0  0  0
  1 10  1  0  0  0  0
  1 19  1  0  0  0  0
  2 14  1  0  0  0  0
  2 46  1  0  0  0  0
  3 16  1  0  0  0  0
  3 47  1  0  0  0  0
  4 17  1  0  0  0  0
  4 48  1  0  0  0  0
  5 19  1  0  0  0  0
  5 49  1  0  0  0  0
  6  7  1  0  0  0  0
  6 11  1  0  0  0  0
  6 18  1  0  0  0  0
  7  8  1  0  0  0  0
  7  9  1  0  0  0  0
  7 26  1  0  0  0  0
  8 12  1  0  0  0  0
  8 27  1  0  0  0  0
  8 28  1  0  0  0  0
  9 13  1  0  0  0  0
  9 29  1  0  0  0  0
  9 30  1  0  0  0  0
 10 11  1  0  0  0  0
 10 14  1  0  0  0  0
 10 31  1  0  0  0  0
 11 32  1  0  0  0  0
 11 33  1  0  0  0  0
 12 15  1  0  0  0  0
 12 35  1  0  0  0  0
 12 36  1  0  0  0  0
 13 15  1  0  0  0  0
 13 37  1  0  0  0  0
 13 38  1  0  0  0  0
 14 16  1  0  0  0  0
 14 34  1  0  0  0  0
 15 39  1  0  0  0  0
 15 40  1  0  0  0  0
 16 17  1  0  0  0  0
 16 41  1  0  0  0  0
 17 19  1  0  0  0  0
 17 42  1  0  0  0  0
 18 20  1  0  0  0  0
 18 43  1  0  0  0  0
 18 44  1  0  0  0  0
 19 45  1  0  0  0  0
 20 21  2  0  0  0  0
 20 22  1  0  0  0  0
 21 23  1  0  0  0  0
 21 50  1  0  0  0  0
 22 24  2  0  0  0  0
 22 51  1  0  0  0  0
 23 25  2  0  0  0  0
 23 52  1  0  0  0  0
 24 25  1  0  0  0  0
 24 53  1  0  0  0  0
 25 54  1  0  0  0  0
M  END
> <PUBCHEM_COMPOUND_CID>
101035251

> <PUBCHEM_CONFORMER_RMSD>
0.8

> <PUBCHEM_CONFORMER_DIVERSEORDER>
1
21
36
70
60
31
43
19
32
67
42
45
56
69
46
48
47
49
62
72
40
2
16
33
17
73
61
38
5
7
30
39
54
15
74
41
50
23
52
24
20
51
65
6
26
35
14
55
3
59
64
28
18
44
27
4
68
53
66
37
25
9
58
34
29
13
63
57
11
71
22
8
10
12

> <PUBCHEM_MMFF94_PARTIAL_CHARGES>
29
1 -0.56
10 0.28
11 0.27
14 0.28
16 0.28
17 0.28
18 0.41
19 0.56
2 -0.68
20 -0.14
21 -0.15
22 -0.15
23 -0.15
24 -0.15
25 -0.15
3 -0.68
4 -0.68
46 0.4
47 0.4
48 0.4
49 0.4
5 -0.68
50 0.15
51 0.15
52 0.15
53 0.15
54 0.15
6 -0.81
7 0.27

> <PUBCHEM_EFFECTIVE_ROTOR_COUNT>
7.4

> <PUBCHEM_PHARMACOPHORE_FEATURES>
13
1 1 acceptor
1 2 acceptor
1 2 donor
1 3 acceptor
1 3 donor
1 4 acceptor
1 4 donor
1 5 acceptor
1 5 donor
1 6 cation
6 1 10 14 16 17 19 rings
6 20 21 22 23 24 25 rings
6 7 8 9 12 13 15 rings

> <PUBCHEM_HEAVY_ATOM_COUNT>
25

> <PUBCHEM_ATOM_DEF_STEREO_COUNT>
5

> <PUBCHEM_ATOM_UDEF_STEREO_COUNT>
0

> <PUBCHEM_BOND_DEF_STEREO_COUNT>
0

> <PUBCHEM_BOND_UDEF_STEREO_COUNT>
0

> <PUBCHEM_ISOTOPIC_ATOM_COUNT>
0

> <PUBCHEM_COMPONENT_COUNT>
1

> <PUBCHEM_CACTVS_TAUTO_COUNT>
1

> <PUBCHEM_CONFORMER_ID>
0605ACF300000001

> <PUBCHEM_MMFF94_ENERGY>
62.1682

> <PUBCHEM_FEATURE_SELFOVERLAP>
66.03

> <PUBCHEM_SHAPE_FINGERPRINT>
10165383 225 17975150754813250972
11405975 8 18409165485830615082
11578080 2 18269858483256171972
12160290 23 18259982682790106079
12363563 72 17827357996685067675
12549972 3 18201988924745131026
12643181 29 18193846938653805710
12788726 201 18043537315849345427
13140716 1 18119255206008735147
13681431 1 17541669752031092999
13955234 65 17471295055387634993
14178342 30 18187082866971580646
14468879 13 17988341746151215788
14955137 171 16967757722966614637
1813 80 17977961403124290915
20600515 1 17535738934428461499
21033648 29 18044368332050543572
21049683 118 18192689190978283913
21304303 282 17900222456627821935
21344244 78 17691999332783394971
21524375 3 18049437050704954535
22182313 1 17989208192074987116
22956985 138 16168623931888997546
23557571 272 18266448983085938495
23558518 356 18409163299185976543
23845131 108 18120379761902115745
24893989 43 14002785818612656153
283562 15 18189047762563958314
3380486 145 17911512418068239463
35225 105 18260270724623925057
4058900 60 17905054651139343649
4258327 124 17749398091021903860
469060 322 17749394750539186069
474 4 17981598278467243245
59755656 520 18263360291967914461
6049 1 18201161061150616006
633830 44 17913765016693302133
6442390 28 18265062332126463665
6786 2 18121791534547337187
7226269 152 18116417306542145535
7399639 24 17769924998692409992
7808743 9 18333736806037478660
81228 2 18261677064473243087
9658208 31 18337683996729679055
9981440 41 17628881721292020056

> <PUBCHEM_SHAPE_MULTIPOLES>
480.16
8.94
5.03
1.8
11.22
2.25
-0.28
-4.61
0.35
-9.4
-1.2
0.37
0.14
2.36

> <PUBCHEM_SHAPE_SELFOVERLAP>
998.86

> <PUBCHEM_SHAPE_VOLUME>
269

> <PUBCHEM_COORDINATE_TYPE>
2
5
10

$$$$
