101235129
  -OEChem-03052615013D

 35 36  0     1  0  0  0  0  0999 V2000
    2.8204    0.8798   -0.0992 O   0  0  0  0  0  0  0  0  0  0  0  0
    0.8656    1.7441    0.7776 O   0  0  0  0  0  0  0  0  0  0  0  0
   -0.7314   -0.0476   -0.6389 C   0  0  2  0  0  0  0  0  0  0  0  0
   -1.2049   -0.3828    0.7933 C   0  0  1  0  0  0  0  0  0  0  0  0
    0.8029   -0.1146   -0.7608 C   0  0  2  0  0  0  0  0  0  0  0  0
   -1.3318    1.2891   -1.0978 C   0  0  0  0  0  0  0  0  0  0  0  0
   -2.7375   -0.4788    0.8184 C   0  0  0  0  0  0  0  0  0  0  0  0
    1.3409   -1.5103   -0.3534 C   0  0  1  0  0  0  0  0  0  0  0  0
   -2.8597    1.2422   -1.0445 C   0  0  0  0  0  0  0  0  0  0  0  0
   -3.3756    0.8235    0.3310 C   0  0  0  0  0  0  0  0  0  0  0  0
   -0.5466   -1.6307    1.3154 C   0  0  0  0  0  0  0  0  0  0  0  0
    0.5842   -2.1323    0.7979 C   0  0  0  0  0  0  0  0  0  0  0  0
    1.4691    0.9499    0.0689 C   0  0  0  0  0  0  0  0  0  0  0  0
    1.3222   -2.4729   -1.5456 C   0  0  0  0  0  0  0  0  0  0  0  0
    3.5823    1.8414    0.6376 C   0  0  0  0  0  0  0  0  0  0  0  0
   -1.1334   -0.8163   -1.3169 H   0  0  0  0  0  0  0  0  0  0  0  0
   -0.9397    0.4208    1.4905 H   0  0  0  0  0  0  0  0  0  0  0  0
    1.0751    0.1049   -1.8025 H   0  0  0  0  0  0  0  0  0  0  0  0
   -1.0163    1.5045   -2.1256 H   0  0  0  0  0  0  0  0  0  0  0  0
   -1.0040    2.1321   -0.4845 H   0  0  0  0  0  0  0  0  0  0  0  0
   -3.0892   -0.6910    1.8357 H   0  0  0  0  0  0  0  0  0  0  0  0
   -3.0761   -1.3108    0.1873 H   0  0  0  0  0  0  0  0  0  0  0  0
    2.3872   -1.4388   -0.0319 H   0  0  0  0  0  0  0  0  0  0  0  0
   -3.2259    0.5332   -1.7975 H   0  0  0  0  0  0  0  0  0  0  0  0
   -3.2688    2.2239   -1.3091 H   0  0  0  0  0  0  0  0  0  0  0  0
   -3.1638    1.6216    1.0534 H   0  0  0  0  0  0  0  0  0  0  0  0
   -4.4649    0.7084    0.2957 H   0  0  0  0  0  0  0  0  0  0  0  0
   -0.9960   -2.1277    2.1709 H   0  0  0  0  0  0  0  0  0  0  0  0
    1.0026   -3.0340    1.2382 H   0  0  0  0  0  0  0  0  0  0  0  0
    0.3056   -2.6414   -1.9173 H   0  0  0  0  0  0  0  0  0  0  0  0
    1.7418   -3.4474   -1.2706 H   0  0  0  0  0  0  0  0  0  0  0  0
    1.9233   -2.0773   -2.3714 H   0  0  0  0  0  0  0  0  0  0  0  0
    3.3106    2.8557    0.3304 H   0  0  0  0  0  0  0  0  0  0  0  0
    4.6404    1.6788    0.4159 H   0  0  0  0  0  0  0  0  0  0  0  0
    3.4237    1.7068    1.7119 H   0  0  0  0  0  0  0  0  0  0  0  0
  1 13  1  0  0  0  0
  1 15  1  0  0  0  0
  2 13  2  0  0  0  0
  3  4  1  0  0  0  0
  3  5  1  0  0  0  0
  3  6  1  0  0  0  0
  3 16  1  0  0  0  0
  4  7  1  0  0  0  0
  4 11  1  0  0  0  0
  4 17  1  0  0  0  0
  5  8  1  0  0  0  0
  5 13  1  0  0  0  0
  5 18  1  0  0  0  0
  6  9  1  0  0  0  0
  6 19  1  0  0  0  0
  6 20  1  0  0  0  0
  7 10  1  0  0  0  0
  7 21  1  0  0  0  0
  7 22  1  0  0  0  0
  8 12  1  0  0  0  0
  8 14  1  0  0  0  0
  8 23  1  0  0  0  0
  9 10  1  0  0  0  0
  9 24  1  0  0  0  0
  9 25  1  0  0  0  0
 10 26  1  0  0  0  0
 10 27  1  0  0  0  0
 11 12  2  0  0  0  0
 11 28  1  0  0  0  0
 12 29  1  0  0  0  0
 14 30  1  0  0  0  0
 14 31  1  0  0  0  0
 14 32  1  0  0  0  0
 15 33  1  0  0  0  0
 15 34  1  0  0  0  0
 15 35  1  0  0  0  0
M  END
> <PUBCHEM_COMPOUND_CID>
101235129

> <PUBCHEM_CONFORMER_RMSD>
0.6

> <PUBCHEM_CONFORMER_DIVERSEORDER>
1
9
3
6
8
4
2
7
5

> <PUBCHEM_MMFF94_PARTIAL_CHARGES>
11
1 -0.43
11 -0.29
12 -0.29
13 0.66
15 0.28
2 -0.57
28 0.15
29 0.15
4 0.14
5 0.06
8 0.14

> <PUBCHEM_EFFECTIVE_ROTOR_COUNT>
3.2

> <PUBCHEM_PHARMACOPHORE_FEATURES>
3
1 2 acceptor
6 3 4 5 8 11 12 rings
6 3 4 6 7 9 10 rings

> <PUBCHEM_HEAVY_ATOM_COUNT>
15

> <PUBCHEM_ATOM_DEF_STEREO_COUNT>
3

> <PUBCHEM_ATOM_UDEF_STEREO_COUNT>
1

> <PUBCHEM_BOND_DEF_STEREO_COUNT>
0

> <PUBCHEM_BOND_UDEF_STEREO_COUNT>
0

> <PUBCHEM_ISOTOPIC_ATOM_COUNT>
0

> <PUBCHEM_COMPONENT_COUNT>
1

> <PUBCHEM_CACTVS_TAUTO_COUNT>
2

> <PUBCHEM_CONFORMER_ID>
0608B9B900000001

> <PUBCHEM_MMFF94_ENERGY>
24.9216

> <PUBCHEM_FEATURE_SELFOVERLAP>
15.241

> <PUBCHEM_SHAPE_FINGERPRINT>
12119455 92 18341887537078025736
12326174 3 18269266868200478030
12423570 1 17754772581241184283
12716301 132 17459776819923345818
13024252 1 16591089074259978202
13380535 76 18336261331446105539
13464514 151 18193553359435400372
13571099 52 18408884044459262289
14761567 1 17537731988269302639
14817 1 17460041888151515178
15001771 113 16747056576586917555
15219456 202 18335422339702370045
15775835 57 18341609360335609013
161256 15 18116159870112008735
16945 1 18200880577841904447
1813 80 16483619221516513678
19049666 15 18044940073790787557
20645477 70 18268698421448359309
20871998 184 17975706295942623011
21501502 16 18335692845475226435
21524375 3 18339352097460588864
21947302 44 18337951190718564721
22344851 341 18188491276678333083
23388829 49 15889689969330661361
23402539 116 18046338906174585547
23419403 2 17907623273383660210
23526113 38 17976821986675507422
23559900 14 17755028501970508230
25 1 18342459239958823824
2748010 2 18114477677509290119
4663303 62 18341902835429949694
53812653 166 18042129751897482371
5706482 22 18264753523408130264
7364860 26 18271245997693931758
77492 1 16415202234746924421
81228 2 17402592538833518810

> <PUBCHEM_SHAPE_MULTIPOLES>
296.95
4.54
2.46
1.33
0.67
0.73
-0.18
-2.85
0.38
-1.67
-0.03
0.1
0.42
1.25

> <PUBCHEM_SHAPE_SELFOVERLAP>
609.449

> <PUBCHEM_SHAPE_VOLUME>
168.9

> <PUBCHEM_COORDINATE_TYPE>
2
5
10

$$$$
