101344400
  -OEChem-03052615023D

 44 44  0     1  0  0  0  0  0999 V2000
    1.6956   -0.3902    2.6163 Cl  0  0  0  0  0  0  0  0  0  0  0  0
    1.3323   -0.1764   -2.8200 Cl  0  0  0  0  0  0  0  0  0  0  0  0
   -3.1737   -0.6265    0.0191 O   0  0  0  0  0  0  0  0  0  0  0  0
   -2.7295    0.8633    1.7222 O   0  0  0  0  0  0  0  0  0  0  0  0
   -0.1972    1.1158    0.6664 N   0  0  0  0  0  0  0  0  0  0  0  0
    1.0818    1.0417   -0.0209 C   0  0  1  0  0  0  0  0  0  0  0  0
    2.1224    1.9931    0.6409 C   0  0  0  0  0  0  0  0  0  0  0  0
   -1.2927    0.7688   -0.2413 C   0  0  2  0  0  0  0  0  0  0  0  0
    1.5527   -0.4024   -0.1091 C   0  0  0  0  0  0  0  0  0  0  0  0
    1.8430    3.4651    0.3019 C   0  0  0  0  0  0  0  0  0  0  0  0
    3.5553    1.6560    0.2033 C   0  0  0  0  0  0  0  0  0  0  0  0
   -1.6381    1.9584   -1.1428 C   0  0  0  0  0  0  0  0  0  0  0  0
   -2.4712    0.3736    0.6298 C   0  0  0  0  0  0  0  0  0  0  0  0
    1.8492   -1.1116    1.0548 C   0  0  0  0  0  0  0  0  0  0  0  0
    1.6879   -1.0169   -1.3541 C   0  0  0  0  0  0  0  0  0  0  0  0
   -2.7649    1.6517   -2.1209 C   0  0  0  0  0  0  0  0  0  0  0  0
    2.2810   -2.4357    0.9738 C   0  0  0  0  0  0  0  0  0  0  0  0
    2.1198   -2.3409   -1.4351 C   0  0  0  0  0  0  0  0  0  0  0  0
    2.4165   -3.0502   -0.2710 C   0  0  0  0  0  0  0  0  0  0  0  0
   -4.3026   -1.1208    0.7465 C   0  0  0  0  0  0  0  0  0  0  0  0
   -4.9677   -2.2161   -0.0598 C   0  0  0  0  0  0  0  0  0  0  0  0
    0.9764    1.4655   -1.0187 H   0  0  0  0  0  0  0  0  0  0  0  0
    2.0888    1.9453    1.7322 H   0  0  0  0  0  0  0  0  0  0  0  0
   -0.3564    2.0444    1.0531 H   0  0  0  0  0  0  0  0  0  0  0  0
   -1.0378   -0.1109   -0.8432 H   0  0  0  0  0  0  0  0  0  0  0  0
    2.5770    4.1204    0.7839 H   0  0  0  0  0  0  0  0  0  0  0  0
    0.8530    3.7780    0.6469 H   0  0  0  0  0  0  0  0  0  0  0  0
    1.8966    3.6410   -0.7780 H   0  0  0  0  0  0  0  0  0  0  0  0
    3.9013    0.6937    0.5890 H   0  0  0  0  0  0  0  0  0  0  0  0
    4.2572    2.4078    0.5829 H   0  0  0  0  0  0  0  0  0  0  0  0
    3.6460    1.6471   -0.8885 H   0  0  0  0  0  0  0  0  0  0  0  0
   -0.7746    2.2818   -1.7324 H   0  0  0  0  0  0  0  0  0  0  0  0
   -1.9418    2.8197   -0.5335 H   0  0  0  0  0  0  0  0  0  0  0  0
   -3.7133    1.4789   -1.6036 H   0  0  0  0  0  0  0  0  0  0  0  0
   -2.5309    0.7704   -2.7264 H   0  0  0  0  0  0  0  0  0  0  0  0
   -2.9118    2.4983   -2.7997 H   0  0  0  0  0  0  0  0  0  0  0  0
    2.5162   -3.0024    1.8712 H   0  0  0  0  0  0  0  0  0  0  0  0
    2.2305   -2.8346   -2.3972 H   0  0  0  0  0  0  0  0  0  0  0  0
    2.7528   -4.0809   -0.3341 H   0  0  0  0  0  0  0  0  0  0  0  0
   -3.9691   -1.5211    1.7104 H   0  0  0  0  0  0  0  0  0  0  0  0
   -5.0126   -0.3039    0.9174 H   0  0  0  0  0  0  0  0  0  0  0  0
   -5.2899   -1.8350   -1.0345 H   0  0  0  0  0  0  0  0  0  0  0  0
   -4.2643   -3.0323   -0.2545 H   0  0  0  0  0  0  0  0  0  0  0  0
   -5.8374   -2.6173    0.4680 H   0  0  0  0  0  0  0  0  0  0  0  0
  1 14  1  0  0  0  0
  2 15  1  0  0  0  0
  3 13  1  0  0  0  0
  3 20  1  0  0  0  0
  4 13  2  0  0  0  0
  5  6  1  0  0  0  0
  5  8  1  0  0  0  0
  5 24  1  0  0  0  0
  6  7  1  0  0  0  0
  6  9  1  0  0  0  0
  6 22  1  0  0  0  0
  7 10  1  0  0  0  0
  7 11  1  0  0  0  0
  7 23  1  0  0  0  0
  8 12  1  0  0  0  0
  8 13  1  0  0  0  0
  8 25  1  0  0  0  0
  9 14  2  0  0  0  0
  9 15  1  0  0  0  0
 10 26  1  0  0  0  0
 10 27  1  0  0  0  0
 10 28  1  0  0  0  0
 11 29  1  0  0  0  0
 11 30  1  0  0  0  0
 11 31  1  0  0  0  0
 12 16  1  0  0  0  0
 12 32  1  0  0  0  0
 12 33  1  0  0  0  0
 14 17  1  0  0  0  0
 15 18  2  0  0  0  0
 16 34  1  0  0  0  0
 16 35  1  0  0  0  0
 16 36  1  0  0  0  0
 17 19  2  0  0  0  0
 17 37  1  0  0  0  0
 18 19  1  0  0  0  0
 18 38  1  0  0  0  0
 19 39  1  0  0  0  0
 20 21  1  0  0  0  0
 20 40  1  0  0  0  0
 20 41  1  0  0  0  0
 21 42  1  0  0  0  0
 21 43  1  0  0  0  0
 21 44  1  0  0  0  0
M  END
> <PUBCHEM_COMPOUND_CID>
101344400

> <PUBCHEM_CONFORMER_RMSD>
0.8

> <PUBCHEM_CONFORMER_DIVERSEORDER>
1
30
18
7
6
26
21
29
11
27
13
19
17
24
16
32
31
9
20
33
23
28
25
15
22
8
5
12
2
10
14
3
4

> <PUBCHEM_MMFF94_PARTIAL_CHARGES>
19
1 -0.18
13 0.66
14 0.18
15 0.18
17 -0.15
18 -0.15
19 -0.15
2 -0.18
20 0.28
24 0.36
3 -0.43
37 0.15
38 0.15
39 0.15
4 -0.57
5 -0.9
6 0.41
8 0.33
9 -0.14

> <PUBCHEM_EFFECTIVE_ROTOR_COUNT>
8

> <PUBCHEM_PHARMACOPHORE_FEATURES>
6
1 16 hydrophobe
1 4 acceptor
1 5 cation
1 5 donor
3 7 10 11 hydrophobe
6 9 14 15 17 18 19 rings

> <PUBCHEM_HEAVY_ATOM_COUNT>
21

> <PUBCHEM_ATOM_DEF_STEREO_COUNT>
2

> <PUBCHEM_ATOM_UDEF_STEREO_COUNT>
0

> <PUBCHEM_BOND_DEF_STEREO_COUNT>
0

> <PUBCHEM_BOND_UDEF_STEREO_COUNT>
0

> <PUBCHEM_ISOTOPIC_ATOM_COUNT>
0

> <PUBCHEM_COMPONENT_COUNT>
1

> <PUBCHEM_CACTVS_TAUTO_COUNT>
1

> <PUBCHEM_CONFORMER_ID>
060A649000000001

> <PUBCHEM_MMFF94_ENERGY>
45.2195

> <PUBCHEM_FEATURE_SELFOVERLAP>
30.446

> <PUBCHEM_SHAPE_FINGERPRINT>
11112662 9 17908708680212047516
11578080 2 17968660393657043228
12202030 40 18340205181218836895
12553582 1 17909275680324935822
12633257 1 17985566463460844395
13083527 12 18117535492012173265
13764800 53 10519398837230278511
14223421 5 18408599275369229629
14787075 74 18263099772690866590
14863182 85 17970074541614149299
15664445 248 17970080026741093597
16945 1 18272360937440444352
20600515 1 17698448724066860226
20645477 70 18411696621574459647
20691752 17 18114476629505641275
21069387 34 17841402879366573077
21524375 3 18121498218251137928
21731516 1 18194980555619041227
23419403 2 16447797313092887178
23557571 272 17749100119718925573
23559900 14 18264475209437697861
3052486 1 17758406553060228766
31174 14 18412548712662343597
3797600 57 17559961093962681211
621550 34 18265046011087624333
81228 2 17385723587134153901

> <PUBCHEM_SHAPE_MULTIPOLES>
419.19
6.73
3.47
2.18
9.64
0.08
0.62
-2.86
-0.85
-1.98
0.23
-0.56
-0.11
1.14

> <PUBCHEM_SHAPE_SELFOVERLAP>
826.217

> <PUBCHEM_SHAPE_VOLUME>
252.2

> <PUBCHEM_COORDINATE_TYPE>
2
5
10

$$$$
