101490212
  -OEChem-03052615013D

 59 60  0     0  0  0  0  0  0999 V2000
   -3.3895    2.5445   -1.4105 O   0  0  0  0  0  0  0  0  0  0  0  0
    3.1907    2.8468    1.3046 O   0  0  0  0  0  0  0  0  0  0  0  0
   -4.6841    2.3733    1.0431 O   0  0  0  0  0  0  0  0  0  0  0  0
    4.4986    2.6003   -1.1353 O   0  0  0  0  0  0  0  0  0  0  0  0
   -2.6325   -4.4810   -1.9775 O   0  0  0  0  0  0  0  0  0  0  0  0
    2.9629   -4.2765    2.0399 O   0  0  0  0  0  0  0  0  0  0  0  0
   -0.9912   -3.5049   -3.2063 O   0  0  0  0  0  0  0  0  0  0  0  0
    1.3676   -3.2551    3.2952 O   0  0  0  0  0  0  0  0  0  0  0  0
    0.0058   -0.7205    0.0582 C   0  0  0  0  0  0  0  0  0  0  0  0
   -0.3399   -1.6520   -1.1753 C   0  0  0  0  0  0  0  0  0  0  0  0
    0.4373   -1.6728    1.2347 C   0  0  0  0  0  0  0  0  0  0  0  0
   -1.2697    0.1234    0.3235 C   0  0  0  0  0  0  0  0  0  0  0  0
    1.2326    0.1890   -0.2652 C   0  0  0  0  0  0  0  0  0  0  0  0
   -1.4776   -2.6675   -0.9695 C   0  0  0  0  0  0  0  0  0  0  0  0
    1.6442   -2.5870    0.9901 C   0  0  0  0  0  0  0  0  0  0  0  0
   -1.7661    0.9678   -0.6696 C   0  0  0  0  0  0  0  0  0  0  0  0
    1.6724    1.1255    0.6703 C   0  0  0  0  0  0  0  0  0  0  0  0
   -1.9198    0.0366    1.5544 C   0  0  0  0  0  0  0  0  0  0  0  0
    1.8895    0.0646   -1.4894 C   0  0  0  0  0  0  0  0  0  0  0  0
   -2.9131    1.7253   -0.4317 C   0  0  0  0  0  0  0  0  0  0  0  0
    2.7693    1.9376    0.3817 C   0  0  0  0  0  0  0  0  0  0  0  0
   -3.0665    0.7944    1.7924 C   0  0  0  0  0  0  0  0  0  0  0  0
    2.9862    0.8768   -1.7780 C   0  0  0  0  0  0  0  0  0  0  0  0
   -1.6446   -3.5686   -2.1742 C   0  0  0  0  0  0  0  0  0  0  0  0
    1.9510   -3.3935    2.2278 C   0  0  0  0  0  0  0  0  0  0  0  0
   -3.5632    1.6387    0.7993 C   0  0  0  0  0  0  0  0  0  0  0  0
    3.4262    1.8132   -0.8424 C   0  0  0  0  0  0  0  0  0  0  0  0
   -2.6658    2.5746   -2.6393 C   0  0  0  0  0  0  0  0  0  0  0  0
    2.4640    2.9099    2.5304 C   0  0  0  0  0  0  0  0  0  0  0  0
   -5.2883    2.2269    2.3268 C   0  0  0  0  0  0  0  0  0  0  0  0
    5.1135    2.4101   -2.4083 C   0  0  0  0  0  0  0  0  0  0  0  0
   -0.5891   -1.0552   -2.0633 H   0  0  0  0  0  0  0  0  0  0  0  0
    0.5436   -2.2353   -1.4642 H   0  0  0  0  0  0  0  0  0  0  0  0
   -0.4075   -2.3024    1.5416 H   0  0  0  0  0  0  0  0  0  0  0  0
    0.6611   -1.0617    2.1212 H   0  0  0  0  0  0  0  0  0  0  0  0
   -2.4281   -2.1507   -0.8045 H   0  0  0  0  0  0  0  0  0  0  0  0
   -1.2687   -3.3210   -0.1184 H   0  0  0  0  0  0  0  0  0  0  0  0
    2.5374   -2.0054    0.7441 H   0  0  0  0  0  0  0  0  0  0  0  0
    1.4372   -3.2986    0.1860 H   0  0  0  0  0  0  0  0  0  0  0  0
   -1.2191    1.0166   -1.6035 H   0  0  0  0  0  0  0  0  0  0  0  0
    1.1254    1.1853    1.6043 H   0  0  0  0  0  0  0  0  0  0  0  0
   -1.5694   -0.5999    2.3590 H   0  0  0  0  0  0  0  0  0  0  0  0
    1.5987   -0.6336   -2.2643 H   0  0  0  0  0  0  0  0  0  0  0  0
   -3.5184    0.6779    2.7715 H   0  0  0  0  0  0  0  0  0  0  0  0
    3.4468    0.7270   -2.7485 H   0  0  0  0  0  0  0  0  0  0  0  0
   -2.7478   -5.0679   -2.7551 H   0  0  0  0  0  0  0  0  0  0  0  0
    3.1597   -4.7867    2.8544 H   0  0  0  0  0  0  0  0  0  0  0  0
   -1.6516    2.9649   -2.5014 H   0  0  0  0  0  0  0  0  0  0  0  0
   -2.6750    1.5994   -3.1382 H   0  0  0  0  0  0  0  0  0  0  0  0
   -3.1865    3.2739   -3.3019 H   0  0  0  0  0  0  0  0  0  0  0  0
    1.4262    3.2213    2.3693 H   0  0  0  0  0  0  0  0  0  0  0  0
    2.5371    1.9724    3.0923 H   0  0  0  0  0  0  0  0  0  0  0  0
    2.9354    3.6846    3.1442 H   0  0  0  0  0  0  0  0  0  0  0  0
   -6.1655    2.8820    2.3466 H   0  0  0  0  0  0  0  0  0  0  0  0
   -4.6215    2.5645    3.1275 H   0  0  0  0  0  0  0  0  0  0  0  0
   -5.6506    1.2059    2.4884 H   0  0  0  0  0  0  0  0  0  0  0  0
    5.9474    3.1170   -2.4720 H   0  0  0  0  0  0  0  0  0  0  0  0
    4.4283    2.6525   -3.2277 H   0  0  0  0  0  0  0  0  0  0  0  0
    5.5402    1.4059   -2.5044 H   0  0  0  0  0  0  0  0  0  0  0  0
  1 20  1  0  0  0  0
  1 28  1  0  0  0  0
  2 21  1  0  0  0  0
  2 29  1  0  0  0  0
  3 26  1  0  0  0  0
  3 30  1  0  0  0  0
  4 27  1  0  0  0  0
  4 31  1  0  0  0  0
  5 24  1  0  0  0  0
  5 46  1  0  0  0  0
  6 25  1  0  0  0  0
  6 47  1  0  0  0  0
  7 24  2  0  0  0  0
  8 25  2  0  0  0  0
  9 10  1  0  0  0  0
  9 11  1  0  0  0  0
  9 12  1  0  0  0  0
  9 13  1  0  0  0  0
 10 14  1  0  0  0  0
 10 32  1  0  0  0  0
 10 33  1  0  0  0  0
 11 15  1  0  0  0  0
 11 34  1  0  0  0  0
 11 35  1  0  0  0  0
 12 16  2  0  0  0  0
 12 18  1  0  0  0  0
 13 17  2  0  0  0  0
 13 19  1  0  0  0  0
 14 24  1  0  0  0  0
 14 36  1  0  0  0  0
 14 37  1  0  0  0  0
 15 25  1  0  0  0  0
 15 38  1  0  0  0  0
 15 39  1  0  0  0  0
 16 20  1  0  0  0  0
 16 40  1  0  0  0  0
 17 21  1  0  0  0  0
 17 41  1  0  0  0  0
 18 22  2  0  0  0  0
 18 42  1  0  0  0  0
 19 23  2  0  0  0  0
 19 43  1  0  0  0  0
 20 26  2  0  0  0  0
 21 27  2  0  0  0  0
 22 26  1  0  0  0  0
 22 44  1  0  0  0  0
 23 27  1  0  0  0  0
 23 45  1  0  0  0  0
 28 48  1  0  0  0  0
 28 49  1  0  0  0  0
 28 50  1  0  0  0  0
 29 51  1  0  0  0  0
 29 52  1  0  0  0  0
 29 53  1  0  0  0  0
 30 54  1  0  0  0  0
 30 55  1  0  0  0  0
 30 56  1  0  0  0  0
 31 57  1  0  0  0  0
 31 58  1  0  0  0  0
 31 59  1  0  0  0  0
M  END
> <PUBCHEM_COMPOUND_CID>
101490212

> <PUBCHEM_CONFORMER_RMSD>
1.2

> <PUBCHEM_CONFORMER_DIVERSEORDER>
1
5
4
8
7
6
2
3

> <PUBCHEM_MMFF94_PARTIAL_CHARGES>
37
1 -0.36
12 -0.14
13 -0.14
14 0.06
15 0.06
16 -0.15
17 -0.15
18 -0.15
19 -0.15
2 -0.36
20 0.08
21 0.08
22 -0.15
23 -0.15
24 0.66
25 0.66
26 0.08
27 0.08
28 0.28
29 0.28
3 -0.36
30 0.28
31 0.28
4 -0.36
40 0.15
41 0.15
42 0.15
43 0.15
44 0.15
45 0.15
46 0.5
47 0.5
5 -0.65
6 -0.65
7 -0.57
8 -0.57
9 0.29

> <PUBCHEM_EFFECTIVE_ROTOR_COUNT>
12

> <PUBCHEM_PHARMACOPHORE_FEATURES>
13
1 1 acceptor
1 2 acceptor
1 3 acceptor
1 4 acceptor
1 5 acceptor
1 6 acceptor
1 7 acceptor
1 8 acceptor
3 5 7 24 anion
3 6 8 25 anion
5 9 10 11 14 15 hydrophobe
6 12 16 18 20 22 26 rings
6 13 17 19 21 23 27 rings

> <PUBCHEM_HEAVY_ATOM_COUNT>
31

> <PUBCHEM_ATOM_DEF_STEREO_COUNT>
0

> <PUBCHEM_ATOM_UDEF_STEREO_COUNT>
0

> <PUBCHEM_BOND_DEF_STEREO_COUNT>
0

> <PUBCHEM_BOND_UDEF_STEREO_COUNT>
0

> <PUBCHEM_ISOTOPIC_ATOM_COUNT>
0

> <PUBCHEM_COMPONENT_COUNT>
1

> <PUBCHEM_CACTVS_TAUTO_COUNT>
3

> <PUBCHEM_CONFORMER_ID>
060C9E2400000001

> <PUBCHEM_MMFF94_ENERGY>
126.942

> <PUBCHEM_FEATURE_SELFOVERLAP>
66.103

> <PUBCHEM_SHAPE_FINGERPRINT>
10165383 225 18264795244578824009
107951 10 18044968828897495478
11421498 54 17901358393858040727
11582403 64 18338256910685954066
12160290 23 18121775298964361337
12293681 160 17616513486537002351
12788726 201 17620460746418646104
13134695 92 17831559999450375328
133893 2 17533185701241786338
13583140 156 17751079102967278075
13636023 51 18042140773496078337
13681431 1 17547578076230489559
14955137 171 18053108324035552250
16114785 44 17904223742375762416
17980427 23 17691393118896276616
17980427 26 18041286499720775810
21756936 100 17897461699063774996
23419403 2 16896595913236564914
23558518 356 18054226797933098016
23559900 14 16589729846329279601
283562 15 17907837849748912331
3493558 16 14014617628556497318
394222 165 18265070049686758024
469060 322 17896881165582185277
497634 4 15692977233707312916
5252454 2 18410299115861543069
5265222 85 17896627110003928820
81228 2 17906738359580083212

> <PUBCHEM_SHAPE_MULTIPOLES>
591.01
8.02
5.79
3.3
0.97
6.42
0.01
-9.7
0.13
-0.68
-0.16
-0.14
1.7
-3.92

> <PUBCHEM_SHAPE_SELFOVERLAP>
1236.986

> <PUBCHEM_SHAPE_VOLUME>
334.1

> <PUBCHEM_COORDINATE_TYPE>
2
5
10

$$$$
