101459529
  -OEChem-03052615033D

 23 23  0     1  0  0  0  0  0999 V2000
    2.5007    1.9742    0.7171 Cl  0  0  0  0  0  0  0  0  0  0  0  0
    1.1435    1.7962   -1.8533 Cl  0  0  0  0  0  0  0  0  0  0  0  0
   -0.0419    3.3087    0.3127 Cl  0  0  0  0  0  0  0  0  0  0  0  0
   -1.2057    0.6026   -0.1223 O   0  0  0  0  0  0  0  0  0  0  0  0
    1.5452   -1.3001    1.0449 O   0  0  0  0  0  0  0  0  0  0  0  0
    0.1130    0.5764    0.4076 C   0  0  1  0  0  0  0  0  0  0  0  0
    0.7345   -0.7717    0.0907 C   0  0  0  0  0  0  0  0  0  0  0  0
    0.9000    1.8204   -0.0748 C   0  0  0  0  0  0  0  0  0  0  0  0
    0.6547   -1.6124   -0.9951 C   0  0  0  0  0  0  0  0  0  0  0  0
   -2.1222   -0.0767    0.7244 C   0  0  0  0  0  0  0  0  0  0  0  0
    1.4683   -2.7291   -0.6883 C   0  0  0  0  0  0  0  0  0  0  0  0
    1.9876   -2.4911    0.5631 C   0  0  0  0  0  0  0  0  0  0  0  0
   -3.4813   -0.0111    0.1109 C   0  0  0  0  0  0  0  0  0  0  0  0
   -4.1964   -1.0864   -0.2377 C   0  0  0  0  0  0  0  0  0  0  0  0
    0.0507    0.6535    1.5042 H   0  0  0  0  0  0  0  0  0  0  0  0
    0.0816   -1.4460   -1.8960 H   0  0  0  0  0  0  0  0  0  0  0  0
   -1.8134   -1.1171    0.8773 H   0  0  0  0  0  0  0  0  0  0  0  0
   -2.1607    0.4201    1.7012 H   0  0  0  0  0  0  0  0  0  0  0  0
    1.6528   -3.5987   -1.3022 H   0  0  0  0  0  0  0  0  0  0  0  0
    2.6513   -3.0410    1.2141 H   0  0  0  0  0  0  0  0  0  0  0  0
   -3.9080    0.9747   -0.0546 H   0  0  0  0  0  0  0  0  0  0  0  0
   -5.1808   -0.9719   -0.6783 H   0  0  0  0  0  0  0  0  0  0  0  0
   -3.8173   -2.0919   -0.0926 H   0  0  0  0  0  0  0  0  0  0  0  0
  1  8  1  0  0  0  0
  2  8  1  0  0  0  0
  3  8  1  0  0  0  0
  4  6  1  0  0  0  0
  4 10  1  0  0  0  0
  5  7  1  0  0  0  0
  5 12  1  0  0  0  0
  6  7  1  0  0  0  0
  6  8  1  0  0  0  0
  6 15  1  0  0  0  0
  7  9  2  0  0  0  0
  9 11  1  0  0  0  0
  9 16  1  0  0  0  0
 10 13  1  0  0  0  0
 10 17  1  0  0  0  0
 10 18  1  0  0  0  0
 11 12  2  0  0  0  0
 11 19  1  0  0  0  0
 12 20  1  0  0  0  0
 13 14  2  0  0  0  0
 13 21  1  0  0  0  0
 14 22  1  0  0  0  0
 14 23  1  0  0  0  0
M  END
> <PUBCHEM_COMPOUND_CID>
101459529

> <PUBCHEM_CONFORMER_RMSD>
0.6

> <PUBCHEM_CONFORMER_DIVERSEORDER>
1
83
20
82
90
60
79
6
73
53
50
57
87
38
75
58
71
39
61
84
59
17
69
68
81
41
30
86
70
66
24
19
89
64
80
56
44
55
85
67
27
72
7
40
48
62
25
34
3
43
54
33
77
74
49
52
45
8
10
63
28
47
9
88
76
23
36
51
18
21
65
16
22
29
26
78
91
11
13
31
15
37
35
14
5
46
2
4
32
12
42

> <PUBCHEM_MMFF94_PARTIAL_CHARGES>
20
1 -0.29
10 0.42
11 -0.15
12 -0.01
13 -0.29
14 -0.3
16 0.15
19 0.15
2 -0.29
20 0.15
21 0.15
22 0.15
23 0.15
3 -0.29
4 -0.56
5 -0.28
6 0.46
7 -0.04
8 0.87
9 -0.15

> <PUBCHEM_EFFECTIVE_ROTOR_COUNT>
5

> <PUBCHEM_PHARMACOPHORE_FEATURES>
4
1 14 hydrophobe
1 4 acceptor
1 5 acceptor
5 5 7 9 11 12 rings

> <PUBCHEM_HEAVY_ATOM_COUNT>
14

> <PUBCHEM_ATOM_DEF_STEREO_COUNT>
0

> <PUBCHEM_ATOM_UDEF_STEREO_COUNT>
1

> <PUBCHEM_BOND_DEF_STEREO_COUNT>
0

> <PUBCHEM_BOND_UDEF_STEREO_COUNT>
0

> <PUBCHEM_ISOTOPIC_ATOM_COUNT>
0

> <PUBCHEM_COMPONENT_COUNT>
1

> <PUBCHEM_CACTVS_TAUTO_COUNT>
1

> <PUBCHEM_CONFORMER_ID>
060C264900000001

> <PUBCHEM_MMFF94_ENERGY>
16.364

> <PUBCHEM_FEATURE_SELFOVERLAP>
20.297

> <PUBCHEM_SHAPE_FINGERPRINT>
1 1 18265331896573481909
116883 192 18052813650993339621
12532896 13 17619631718819604421
14181834 199 18410007741106027959
14817 1 16968029315302679580
15490181 7 17617387615497415609
15502708 68 18339637970399525193
16945 1 18269543975495927642
20511035 2 17463974926980015592
20645476 183 17320150027327783164
20645477 70 18410285935545674711
20711985 344 17687468957849436715
21054139 6 17697302273100683463
21524375 3 17975695309558711073
23402539 116 16466125828420167468
23419403 2 17898822722327421428
23557571 272 17551795820442333950
23559900 14 16685690621329596582
23598291 2 18129960987672418843
23598294 1 17327179844987532515
257057 1 18121213186671961587
2748010 2 18193545679933297461
3060560 45 18194681703405344997
3250762 1 18122329186785071760
528862 383 18411411851809102883
58051976 378 18196932399855475199
7364860 26 18413109485035645267
81228 2 17686627839980611289
81539 233 18189612911687749941

> <PUBCHEM_SHAPE_MULTIPOLES>
281.98
4.5
3.72
1.18
7.32
0.41
-0.44
-0.02
0.29
-3.05
-0.07
-0.59
-0.17
-0.23

> <PUBCHEM_SHAPE_SELFOVERLAP>
539.895

> <PUBCHEM_SHAPE_VOLUME>
172.3

> <PUBCHEM_COORDINATE_TYPE>
2
5
10

$$$$
