101416757
  -OEChem-03052615043D

 33 35  0     1  0  0  0  0  0999 V2000
    2.5015    0.7764   -2.1820 O   0  0  0  0  0  0  0  0  0  0  0  0
    2.2277   -1.3916    0.5421 C   0  0  1  0  0  0  0  0  0  0  0  0
    1.5034   -0.5058   -0.4593 C   0  0  2  0  0  0  0  0  0  0  0  0
    1.9735   -1.8933   -0.8507 C   0  0  0  0  0  0  0  0  0  0  0  0
    3.6428   -1.1356    0.9692 C   0  0  0  0  0  0  0  0  0  0  0  0
    2.2322    0.6793   -0.9904 C   0  0  0  0  0  0  0  0  0  0  0  0
    3.8124    0.1990    1.6933 C   0  0  0  0  0  0  0  0  0  0  0  0
    2.5981    1.7287    0.0321 C   0  0  0  0  0  0  0  0  0  0  0  0
    3.9021    1.3998    0.7452 C   0  0  0  0  0  0  0  0  0  0  0  0
    0.0796   -0.3443   -0.2962 C   0  0  0  0  0  0  0  0  0  0  0  0
   -1.1060   -0.2084   -0.1604 C   0  0  0  0  0  0  0  0  0  0  0  0
   -2.5180   -0.0443    0.0014 C   0  0  0  0  0  0  0  0  0  0  0  0
   -3.3599   -1.1552   -0.0498 C   0  0  0  0  0  0  0  0  0  0  0  0
   -3.0525    1.2268    0.2107 C   0  0  0  0  0  0  0  0  0  0  0  0
   -4.7366   -0.9949    0.1082 C   0  0  0  0  0  0  0  0  0  0  0  0
   -4.4290    1.3872    0.3689 C   0  0  0  0  0  0  0  0  0  0  0  0
   -5.2711    0.2763    0.3176 C   0  0  0  0  0  0  0  0  0  0  0  0
    1.6426   -1.8202    1.3494 H   0  0  0  0  0  0  0  0  0  0  0  0
    2.8090   -1.9791   -1.5364 H   0  0  0  0  0  0  0  0  0  0  0  0
    1.2413   -2.6850   -0.9689 H   0  0  0  0  0  0  0  0  0  0  0  0
    4.3354   -1.1915    0.1206 H   0  0  0  0  0  0  0  0  0  0  0  0
    3.9330   -1.9436    1.6522 H   0  0  0  0  0  0  0  0  0  0  0  0
    4.7495    0.1585    2.2625 H   0  0  0  0  0  0  0  0  0  0  0  0
    3.0054    0.3505    2.4201 H   0  0  0  0  0  0  0  0  0  0  0  0
    2.6984    2.6831   -0.4982 H   0  0  0  0  0  0  0  0  0  0  0  0
    1.7766    1.8532    0.7460 H   0  0  0  0  0  0  0  0  0  0  0  0
    4.6997    1.2299    0.0115 H   0  0  0  0  0  0  0  0  0  0  0  0
    4.1985    2.2759    1.3350 H   0  0  0  0  0  0  0  0  0  0  0  0
   -2.9582   -2.1526   -0.2122 H   0  0  0  0  0  0  0  0  0  0  0  0
   -2.4092    2.1025    0.2532 H   0  0  0  0  0  0  0  0  0  0  0  0
   -5.3923   -1.8598    0.0684 H   0  0  0  0  0  0  0  0  0  0  0  0
   -4.8454    2.3770    0.5320 H   0  0  0  0  0  0  0  0  0  0  0  0
   -6.3429    0.4013    0.4407 H   0  0  0  0  0  0  0  0  0  0  0  0
  1  6  2  0  0  0  0
  2  3  1  0  0  0  0
  2  4  1  0  0  0  0
  2  5  1  0  0  0  0
  2 18  1  0  0  0  0
  3  4  1  0  0  0  0
  3  6  1  0  0  0  0
  3 10  1  0  0  0  0
  4 19  1  0  0  0  0
  4 20  1  0  0  0  0
  5  7  1  0  0  0  0
  5 21  1  0  0  0  0
  5 22  1  0  0  0  0
  6  8  1  0  0  0  0
  7  9  1  0  0  0  0
  7 23  1  0  0  0  0
  7 24  1  0  0  0  0
  8  9  1  0  0  0  0
  8 25  1  0  0  0  0
  8 26  1  0  0  0  0
  9 27  1  0  0  0  0
  9 28  1  0  0  0  0
 10 11  3  0  0  0  0
 11 12  1  0  0  0  0
 12 13  2  0  0  0  0
 12 14  1  0  0  0  0
 13 15  1  0  0  0  0
 13 29  1  0  0  0  0
 14 16  2  0  0  0  0
 14 30  1  0  0  0  0
 15 17  2  0  0  0  0
 15 31  1  0  0  0  0
 16 17  1  0  0  0  0
 16 32  1  0  0  0  0
 17 33  1  0  0  0  0
M  END
> <PUBCHEM_COMPOUND_CID>
101416757

> <PUBCHEM_CONFORMER_RMSD>
0.6

> <PUBCHEM_CONFORMER_DIVERSEORDER>
1
4
9
6
8
5
7
3
2

> <PUBCHEM_MMFF94_PARTIAL_CHARGES>
23
1 -0.57
10 -0.1
11 -0.07
12 0.07
13 -0.15
14 -0.15
15 -0.15
16 -0.15
17 -0.15
18 0.1
19 0.1
2 -0.19
20 0.1
29 0.15
3 0.1
30 0.15
31 0.15
32 0.15
33 0.15
4 -0.2
5 0.09
6 0.51
8 0.06

> <PUBCHEM_EFFECTIVE_ROTOR_COUNT>
1

> <PUBCHEM_PHARMACOPHORE_FEATURES>
3
1 1 acceptor
6 12 13 14 15 16 17 rings
7 2 3 5 6 7 8 9 rings

> <PUBCHEM_HEAVY_ATOM_COUNT>
17

> <PUBCHEM_ATOM_DEF_STEREO_COUNT>
0

> <PUBCHEM_ATOM_UDEF_STEREO_COUNT>
2

> <PUBCHEM_BOND_DEF_STEREO_COUNT>
0

> <PUBCHEM_BOND_UDEF_STEREO_COUNT>
0

> <PUBCHEM_ISOTOPIC_ATOM_COUNT>
0

> <PUBCHEM_COMPONENT_COUNT>
1

> <PUBCHEM_CACTVS_TAUTO_COUNT>
2

> <PUBCHEM_CONFORMER_ID>
060B7F3500000001

> <PUBCHEM_MMFF94_ENERGY>
29.9517

> <PUBCHEM_FEATURE_SELFOVERLAP>
15.223

> <PUBCHEM_SHAPE_FINGERPRINT>
10498660 4 15051725408957125537
11796584 16 12973878182951067049
12173636 292 18341333297808859029
12633257 1 16878212186573939800
12644460 14 16733273421391629372
128620 24 16630526245687559617
13224815 77 17989491822739983257
13675066 3 18335421227696269531
14252887 29 16081077187191294368
18186145 218 17968099690197967607
19050596 39 18408323285324296827
20388580 30 8430327874222097256
20559304 39 18411986827802743924
20645477 70 11963395124046076594
20715895 44 18052251796468121081
21065199 12 18411418384749726891
21637258 2 15069167989022905722
21756936 100 17698991101591670544
2255824 54 17676498232685825190
22646028 1 17821729420963844811
231179 274 16917061183525490970
23503953 91 18333449824880343971
23557571 272 17846504724783076145
23559900 14 18129103316557237599
2838139 119 15912177985087039160
3545911 37 18342742905553133909
42 15 18186798063083609115
474 4 17894918489317314253
5104073 3 18410581661038848683
522135 26 10015867578336321235
5281201 14 15769508533693284225
5374978 207 18409731759787952329
54040823 5 12035734185204068370
633830 44 15625955196697265583
7364860 26 18202286857946959134
7808743 9 17914326038290550176
960060 61 10735878382687220473
9709674 26 18411707577867713927
9841814 1 16370724820930327372
9971528 1 18113615647450105174

> <PUBCHEM_SHAPE_MULTIPOLES>
343.98
10.68
1.75
1.23
10.54
0.01
0.27
1.6
-2.83
-0.7
0
-1.66
0.11
-0.21

> <PUBCHEM_SHAPE_SELFOVERLAP>
733.356

> <PUBCHEM_SHAPE_VOLUME>
189.8

> <PUBCHEM_COORDINATE_TYPE>
2
5
10

$$$$
