101481177
  -OEChem-03052615023D

 27 28  0     0  0  0  0  0  0999 V2000
   -0.8046   -1.3083   -1.5268 F   0  0  0  0  0  0  0  0  0  0  0  0
    0.8954   -2.3083   -0.6338 F   0  0  0  0  0  0  0  0  0  0  0  0
    1.8905    0.1524    0.2635 N   0  0  0  0  0  0  0  0  0  0  0  0
    1.1371    2.1503   -0.0115 N   0  0  0  0  0  0  0  0  0  0  0  0
    2.2006    1.4542    0.3743 N   0  0  0  0  0  0  0  0  0  0  0  0
   -1.8294   -0.7119    1.3825 C   0  0  0  0  0  0  0  0  0  0  0  0
   -0.8903   -1.7649    0.7758 C   0  0  0  0  0  0  0  0  0  0  0  0
   -2.7268    0.0464    0.3979 C   0  0  0  0  0  0  0  0  0  0  0  0
   -0.0294   -1.3321   -0.4064 C   0  0  0  0  0  0  0  0  0  0  0  0
   -2.3105    1.5065    0.1521 C   0  0  0  0  0  0  0  0  0  0  0  0
   -1.1727    1.7117   -0.8502 C   0  0  0  0  0  0  0  0  0  0  0  0
    0.6198   -0.0227   -0.1991 C   0  0  0  0  0  0  0  0  0  0  0  0
    0.1541    1.2633   -0.3664 C   0  0  0  0  0  0  0  0  0  0  0  0
    2.8663   -0.8365    0.6481 C   0  0  0  0  0  0  0  0  0  0  0  0
   -1.2502   -0.0105    1.9953 H   0  0  0  0  0  0  0  0  0  0  0  0
   -2.4783   -1.2434    2.0917 H   0  0  0  0  0  0  0  0  0  0  0  0
   -0.2394   -2.1389    1.5768 H   0  0  0  0  0  0  0  0  0  0  0  0
   -1.4935   -2.6247    0.4569 H   0  0  0  0  0  0  0  0  0  0  0  0
   -3.7293    0.0840    0.8456 H   0  0  0  0  0  0  0  0  0  0  0  0
   -2.8458   -0.4940   -0.5469 H   0  0  0  0  0  0  0  0  0  0  0  0
   -2.0716    1.9945    1.1053 H   0  0  0  0  0  0  0  0  0  0  0  0
   -3.1889    2.0303   -0.2476 H   0  0  0  0  0  0  0  0  0  0  0  0
   -1.1128    2.7816   -1.0875 H   0  0  0  0  0  0  0  0  0  0  0  0
   -1.4125    1.2056   -1.7931 H   0  0  0  0  0  0  0  0  0  0  0  0
    3.2472   -1.3125   -0.2585 H   0  0  0  0  0  0  0  0  0  0  0  0
    3.6854   -0.3524    1.1868 H   0  0  0  0  0  0  0  0  0  0  0  0
    2.3872   -1.5700    1.3009 H   0  0  0  0  0  0  0  0  0  0  0  0
  1  9  1  0  0  0  0
  2  9  1  0  0  0  0
  3  5  1  0  0  0  0
  3 12  1  0  0  0  0
  3 14  1  0  0  0  0
  4  5  2  0  0  0  0
  4 13  1  0  0  0  0
  6  7  1  0  0  0  0
  6  8  1  0  0  0  0
  6 15  1  0  0  0  0
  6 16  1  0  0  0  0
  7  9  1  0  0  0  0
  7 17  1  0  0  0  0
  7 18  1  0  0  0  0
  8 10  1  0  0  0  0
  8 19  1  0  0  0  0
  8 20  1  0  0  0  0
  9 12  1  0  0  0  0
 10 11  1  0  0  0  0
 10 21  1  0  0  0  0
 10 22  1  0  0  0  0
 11 13  1  0  0  0  0
 11 23  1  0  0  0  0
 11 24  1  0  0  0  0
 12 13  2  0  0  0  0
 14 25  1  0  0  0  0
 14 26  1  0  0  0  0
 14 27  1  0  0  0  0
M  END
> <PUBCHEM_COMPOUND_CID>
101481177

> <PUBCHEM_CONFORMER_RMSD>
0.4

> <PUBCHEM_CONFORMER_DIVERSEORDER>
5
4
7
1
6
8
3
2
9
10

> <PUBCHEM_MMFF94_PARTIAL_CHARGES>
10
1 -0.34
11 0.18
12 -0.33
13 0.05
14 0.26
2 -0.34
3 0.31
4 -0.23
5 -0.42
9 0.86

> <PUBCHEM_EFFECTIVE_ROTOR_COUNT>
1.2

> <PUBCHEM_PHARMACOPHORE_FEATURES>
1
5 3 4 5 12 13 rings

> <PUBCHEM_HEAVY_ATOM_COUNT>
14

> <PUBCHEM_ATOM_DEF_STEREO_COUNT>
0

> <PUBCHEM_ATOM_UDEF_STEREO_COUNT>
0

> <PUBCHEM_BOND_DEF_STEREO_COUNT>
0

> <PUBCHEM_BOND_UDEF_STEREO_COUNT>
0

> <PUBCHEM_ISOTOPIC_ATOM_COUNT>
0

> <PUBCHEM_COMPONENT_COUNT>
1

> <PUBCHEM_CACTVS_TAUTO_COUNT>
1

> <PUBCHEM_CONFORMER_ID>
060C7AD900000005

> <PUBCHEM_MMFF94_ENERGY>
17.6816

> <PUBCHEM_FEATURE_SELFOVERLAP>
5.074

> <PUBCHEM_SHAPE_FINGERPRINT>
12423570 1 18272360949834761679
14617773 55 17700955889408166069
14761567 1 16530607804353841405
14817 1 17312822662859832881
15076042 46 18409732888879385849
15775835 57 18058456567741381569
15881359 60 18192123075438558401
16945 1 18340215115351579027
18185500 45 16970554897811935403
20201158 50 18265051328045808809
20511035 2 18335708281482193213
20588541 1 18192155892925016500
23419403 2 14138023253494125353
241688 4 17402903219392852009
2748010 2 18408882940689908940
5084963 1 18202283627862299707

> <PUBCHEM_SHAPE_MULTIPOLES>
258.62
3.38
2.38
1.05
0.39
0.13
-0.1
0.32
1
0.12
-0.2
-0.25
-0.37
0.4

> <PUBCHEM_SHAPE_SELFOVERLAP>
539.949

> <PUBCHEM_SHAPE_VOLUME>
146.9

> <PUBCHEM_COORDINATE_TYPE>
2
5
10

$$$$
