10141695
  -OEChem-03052615043D

 66 69  0     0  0  0  0  0  0999 V2000
   -1.1782    2.4374   -2.1481 Cl  0  0  0  0  0  0  0  0  0  0  0  0
    2.3341    5.5979    0.4194 Cl  0  0  0  0  0  0  0  0  0  0  0  0
   -3.9809   -2.5777   -0.0640 O   0  0  0  0  0  0  0  0  0  0  0  0
   -5.8664   -0.6113    0.2028 N   0  0  0  0  0  0  0  0  0  0  0  0
   -4.5098   -0.3447    0.1778 N   0  0  0  0  0  0  0  0  0  0  0  0
   -0.4638    0.4247    0.0207 N   0  0  0  0  0  0  0  0  0  0  0  0
   -1.7973    0.2692    0.0805 N   0  0  0  0  0  0  0  0  0  0  0  0
   -8.6869    0.1210    0.3464 C   0  0  0  0  0  0  0  0  0  0  0  0
   -8.0218   -0.2945   -0.9616 C   0  0  0  0  0  0  0  0  0  0  0  0
   -7.9406   -0.4707    1.5375 C   0  0  0  0  0  0  0  0  0  0  0  0
   -6.5246    0.0179   -0.9479 C   0  0  0  0  0  0  0  0  0  0  0  0
   -6.4459   -0.1532    1.4710 C   0  0  0  0  0  0  0  0  0  0  0  0
   -3.6271   -1.4032    0.0392 C   0  0  0  0  0  0  0  0  0  0  0  0
   -2.2053   -1.0293   -0.0072 C   0  0  0  0  0  0  0  0  0  0  0  0
   -0.0182   -0.8277   -0.1102 C   0  0  0  0  0  0  0  0  0  0  0  0
   -1.0590   -1.7752   -0.1338 C   0  0  0  0  0  0  0  0  0  0  0  0
    1.4031   -1.1177   -0.2126 C   0  0  0  0  0  0  0  0  0  0  0  0
    5.5870   -1.9729   -0.5155 C   0  0  0  0  0  0  0  0  0  0  0  0
    6.4956   -0.9737    0.2238 C   0  0  0  0  0  0  0  0  0  0  0  0
    4.1294   -1.6750   -0.4098 C   0  0  0  0  0  0  0  0  0  0  0  0
    7.9859   -1.2750    0.0366 C   0  0  0  0  0  0  0  0  0  0  0  0
    2.1512   -0.5792   -1.2596 C   0  0  0  0  0  0  0  0  0  0  0  0
    2.0184   -1.9350    0.7358 C   0  0  0  0  0  0  0  0  0  0  0  0
   -0.9345   -3.2389   -0.2648 C   0  0  0  0  0  0  0  0  0  0  0  0
    3.5143   -0.8578   -1.3582 C   0  0  0  0  0  0  0  0  0  0  0  0
    3.3816   -2.2137    0.6372 C   0  0  0  0  0  0  0  0  0  0  0  0
    0.1788    1.6494    0.0903 C   0  0  0  0  0  0  0  0  0  0  0  0
    8.8539   -0.2470    0.7635 C   0  0  0  0  0  0  0  0  0  0  0  0
   10.3346   -0.5180    0.5498 C   0  0  0  0  0  0  0  0  0  0  0  0
   -0.0623    2.6554   -0.8453 C   0  0  0  0  0  0  0  0  0  0  0  0
    1.0865    1.8645    1.1275 C   0  0  0  0  0  0  0  0  0  0  0  0
    0.6039    3.8766   -0.7437 C   0  0  0  0  0  0  0  0  0  0  0  0
    1.7528    3.0857    1.2290 C   0  0  0  0  0  0  0  0  0  0  0  0
    1.5115    4.0918    0.2935 C   0  0  0  0  0  0  0  0  0  0  0  0
   -9.7325   -0.2059    0.3573 H   0  0  0  0  0  0  0  0  0  0  0  0
   -8.6898    1.2152    0.4237 H   0  0  0  0  0  0  0  0  0  0  0  0
   -8.5006    0.2232   -1.8005 H   0  0  0  0  0  0  0  0  0  0  0  0
   -8.1713   -1.3698   -1.1218 H   0  0  0  0  0  0  0  0  0  0  0  0
   -8.0846   -1.5586    1.5548 H   0  0  0  0  0  0  0  0  0  0  0  0
   -8.3616   -0.0778    2.4699 H   0  0  0  0  0  0  0  0  0  0  0  0
   -6.0852   -0.3601   -1.8796 H   0  0  0  0  0  0  0  0  0  0  0  0
   -6.3754    1.1062   -0.9384 H   0  0  0  0  0  0  0  0  0  0  0  0
   -6.2925    0.9262    1.6051 H   0  0  0  0  0  0  0  0  0  0  0  0
   -5.9488   -0.6568    2.3096 H   0  0  0  0  0  0  0  0  0  0  0  0
   -4.1980    0.6194    0.2515 H   0  0  0  0  0  0  0  0  0  0  0  0
    5.7813   -2.9854   -0.1373 H   0  0  0  0  0  0  0  0  0  0  0  0
    5.8723   -2.0047   -1.5756 H   0  0  0  0  0  0  0  0  0  0  0  0
    6.2840    0.0415   -0.1357 H   0  0  0  0  0  0  0  0  0  0  0  0
    6.2513   -0.9830    1.2937 H   0  0  0  0  0  0  0  0  0  0  0  0
    8.2273   -1.2701   -1.0332 H   0  0  0  0  0  0  0  0  0  0  0  0
    8.2074   -2.2804    0.4144 H   0  0  0  0  0  0  0  0  0  0  0  0
    1.6903    0.0496   -2.0175 H   0  0  0  0  0  0  0  0  0  0  0  0
    1.4542   -2.3581    1.5634 H   0  0  0  0  0  0  0  0  0  0  0  0
   -0.9602   -3.7136    0.7213 H   0  0  0  0  0  0  0  0  0  0  0  0
   -1.7491   -3.6550   -0.8657 H   0  0  0  0  0  0  0  0  0  0  0  0
   -0.0029   -3.5297   -0.7601 H   0  0  0  0  0  0  0  0  0  0  0  0
    4.0860   -0.4325   -2.1789 H   0  0  0  0  0  0  0  0  0  0  0  0
    3.8500   -2.8488    1.3843 H   0  0  0  0  0  0  0  0  0  0  0  0
    8.6342   -0.2671    1.8372 H   0  0  0  0  0  0  0  0  0  0  0  0
    8.6189    0.7612    0.4028 H   0  0  0  0  0  0  0  0  0  0  0  0
   10.9366    0.2274    1.0790 H   0  0  0  0  0  0  0  0  0  0  0  0
   10.5928   -0.4709   -0.5129 H   0  0  0  0  0  0  0  0  0  0  0  0
   10.6104   -1.5079    0.9272 H   0  0  0  0  0  0  0  0  0  0  0  0
    1.2816    1.1000    1.8758 H   0  0  0  0  0  0  0  0  0  0  0  0
    0.4173    4.6628   -1.4722 H   0  0  0  0  0  0  0  0  0  0  0  0
    2.4556    3.2401    2.0438 H   0  0  0  0  0  0  0  0  0  0  0  0
  1 30  1  0  0  0  0
  2 34  1  0  0  0  0
  3 13  2  0  0  0  0
  4  5  1  0  0  0  0
  4 11  1  0  0  0  0
  4 12  1  0  0  0  0
  5 13  1  0  0  0  0
  5 45  1  0  0  0  0
  6  7  1  0  0  0  0
  6 15  1  0  0  0  0
  6 27  1  0  0  0  0
  7 14  2  0  0  0  0
  8  9  1  0  0  0  0
  8 10  1  0  0  0  0
  8 35  1  0  0  0  0
  8 36  1  0  0  0  0
  9 11  1  0  0  0  0
  9 37  1  0  0  0  0
  9 38  1  0  0  0  0
 10 12  1  0  0  0  0
 10 39  1  0  0  0  0
 10 40  1  0  0  0  0
 11 41  1  0  0  0  0
 11 42  1  0  0  0  0
 12 43  1  0  0  0  0
 12 44  1  0  0  0  0
 13 14  1  0  0  0  0
 14 16  1  0  0  0  0
 15 16  2  0  0  0  0
 15 17  1  0  0  0  0
 16 24  1  0  0  0  0
 17 22  2  0  0  0  0
 17 23  1  0  0  0  0
 18 19  1  0  0  0  0
 18 20  1  0  0  0  0
 18 46  1  0  0  0  0
 18 47  1  0  0  0  0
 19 21  1  0  0  0  0
 19 48  1  0  0  0  0
 19 49  1  0  0  0  0
 20 25  2  0  0  0  0
 20 26  1  0  0  0  0
 21 28  1  0  0  0  0
 21 50  1  0  0  0  0
 21 51  1  0  0  0  0
 22 25  1  0  0  0  0
 22 52  1  0  0  0  0
 23 26  2  0  0  0  0
 23 53  1  0  0  0  0
 24 54  1  0  0  0  0
 24 55  1  0  0  0  0
 24 56  1  0  0  0  0
 25 57  1  0  0  0  0
 26 58  1  0  0  0  0
 27 30  2  0  0  0  0
 27 31  1  0  0  0  0
 28 29  1  0  0  0  0
 28 59  1  0  0  0  0
 28 60  1  0  0  0  0
 29 61  1  0  0  0  0
 29 62  1  0  0  0  0
 29 63  1  0  0  0  0
 30 32  1  0  0  0  0
 31 33  2  0  0  0  0
 31 64  1  0  0  0  0
 32 34  2  0  0  0  0
 32 65  1  0  0  0  0
 33 34  1  0  0  0  0
 33 66  1  0  0  0  0
M  END
> <PUBCHEM_COMPOUND_CID>
10141695

> <PUBCHEM_CONFORMER_RMSD>
1.2

> <PUBCHEM_CONFORMER_DIVERSEORDER>
1
27
46
17
14
39
13
7
30
38
16
44
26
2
48
10
22
4
40
41
6
36
11
15
33
18
23
31
21
34
5
9
43
28
35
24
37
8
47
20
29
49
3
45
32
25
42
12
19

> <PUBCHEM_MMFF94_PARTIAL_CHARGES>
35
1 -0.18
11 0.27
12 0.27
13 0.72
14 0.2
15 -0.2
16 -0.18
17 0.05
18 0.14
2 -0.18
20 -0.14
22 -0.15
23 -0.15
24 0.18
25 -0.15
26 -0.15
27 -0.02
3 -0.57
30 0.18
31 -0.15
32 -0.15
33 -0.15
34 0.18
4 -0.55
45 0.37
5 -0.42
52 0.15
53 0.15
57 0.15
58 0.15
6 0.59
64 0.15
65 0.15
66 0.15
7 -0.71

> <PUBCHEM_EFFECTIVE_ROTOR_COUNT>
10.2

> <PUBCHEM_PHARMACOPHORE_FEATURES>
9
1 29 hydrophobe
1 3 acceptor
1 5 donor
1 7 acceptor
4 18 19 21 28 hydrophobe
5 6 7 14 15 16 rings
6 17 20 22 23 25 26 rings
6 27 30 31 32 33 34 rings
6 4 8 9 10 11 12 rings

> <PUBCHEM_HEAVY_ATOM_COUNT>
34

> <PUBCHEM_ATOM_DEF_STEREO_COUNT>
0

> <PUBCHEM_ATOM_UDEF_STEREO_COUNT>
0

> <PUBCHEM_BOND_DEF_STEREO_COUNT>
0

> <PUBCHEM_BOND_UDEF_STEREO_COUNT>
0

> <PUBCHEM_ISOTOPIC_ATOM_COUNT>
0

> <PUBCHEM_COMPONENT_COUNT>
1

> <PUBCHEM_CACTVS_TAUTO_COUNT>
2

> <PUBCHEM_CONFORMER_ID>
009ABFFF00000001

> <PUBCHEM_MMFF94_ENERGY>
82.7225

> <PUBCHEM_FEATURE_SELFOVERLAP>
45.672

> <PUBCHEM_SHAPE_FINGERPRINT>
10050765 1 18196092373083000783
10076449 9 18408886213523274484
102385 1 17906175405474918419
10675989 125 18126011695808105673
11297750 10 18261383430139026820
12664476 115 18060693997823557442
12741549 16 17059770019279122666
12788726 201 18043530516969149762
13383668 251 18266445680852212827
13540713 5 17914611894450439991
13617811 41 18340785745329557934
14068700 675 18059576850226783145
14394314 77 18411136922632206970
14849402 71 18411989087341001449
14937079 2 18412266163775250728
15131766 46 15839832314871209850
15439362 3 18194682802727412832
15849732 13 17989486312329078543
16087824 20 18337953377516561293
19841028 212 16081641168369774394
20238998 120 18413388722435290704
20642791 105 17970902259332165508
20721686 146 15553616088859234113
21049683 271 18260835898938193724
21304253 13 18413953888301160136
21792961 116 17968653813645877839
22311459 1 18412547583614017471
22956985 138 17614285889819046074
23559900 14 18339921614941394811
24771293 8 18060144210462595267
24771750 20 18119261793939948285
249057 3 18413672430889843335
3178227 256 18337686260689660283
335352 9 18412543223831744287
3411729 13 18197777902120960553
44426699 302 17677620929375767020
5219985 9 18412824655578661242
57527293 21 17701509941023572778
57828716 16 17314214593700710944
6371380 46 18186521016978394923
6523845 18 9151170927033863050
9663363 56 18335419050300941599
9962374 69 18342734157359328151

> <PUBCHEM_SHAPE_MULTIPOLES>
677.65
23.39
4.82
1.27
3.61
8.67
-0.19
-13.19
5.86
4.34
0.12
-0.82
0.5
0.86

> <PUBCHEM_SHAPE_SELFOVERLAP>
1422.774

> <PUBCHEM_SHAPE_VOLUME>
384.3

> <PUBCHEM_COORDINATE_TYPE>
2
5
10

$$$$
