101569424
  -OEChem-03052615043D

 78 80  0     1  0  0  0  0  0999 V2000
    3.6212    1.7741    0.9801 S   0  0  0  0  0  0  0  0  0  0  0  0
    5.0610    1.9968   -1.6626 S   0  0  0  0  0  0  0  0  0  0  0  0
   -0.2921    1.8898   -0.6665 O   0  0  0  0  0  0  0  0  0  0  0  0
   -2.7698    1.2525    1.9435 O   0  0  0  0  0  0  0  0  0  0  0  0
   -1.7926   -0.4717    0.8052 O   0  0  0  0  0  0  0  0  0  0  0  0
   -0.2933   -5.6201   -0.6191 O   0  0  0  0  0  0  0  0  0  0  0  0
   -0.4362   -4.3817    1.3263 O   0  0  0  0  0  0  0  0  0  0  0  0
   -3.2851    0.9474   -0.2923 N   0  0  0  0  0  0  0  0  0  0  0  0
    1.5951   -0.1551   -0.8055 C   0  0  1  0  0  0  0  0  0  0  0  0
    3.9478    0.9373   -0.6357 C   0  0  0  0  0  0  0  0  0  0  0  0
    2.2355   -1.5519   -0.6410 C   0  0  1  0  0  0  0  0  0  0  0  0
    2.6084    0.8447   -1.4086 C   0  0  0  0  0  0  0  0  0  0  0  0
    4.5329   -0.4794   -0.4782 C   0  0  0  0  0  0  0  0  0  0  0  0
    3.5512   -1.4757    0.1438 C   0  0  0  0  0  0  0  0  0  0  0  0
    0.3423   -0.2006   -1.6913 C   0  0  0  0  0  0  0  0  0  0  0  0
   -3.0078    0.3363   -1.6091 C   0  0  2  0  0  0  0  0  0  0  0  0
   -1.8238    1.0097   -2.3088 C   0  0  0  0  0  0  0  0  0  0  0  0
   -0.5582    0.9949   -1.4672 C   0  0  0  0  0  0  0  0  0  0  0  0
    1.3163   -2.5268    0.0349 C   0  0  0  0  0  0  0  0  0  0  0  0
   -4.2468    0.2692   -2.5080 C   0  0  0  0  0  0  0  0  0  0  0  0
   -4.1875    2.1205   -0.2109 C   0  0  2  0  0  0  0  0  0  0  0  0
   -5.0029    1.5889   -2.5622 C   0  0  0  0  0  0  0  0  0  0  0  0
   -5.3925    2.0094   -1.1525 C   0  0  0  0  0  0  0  0  0  0  0  0
    5.3040    1.9145    1.6494 C   0  0  0  0  0  0  0  0  0  0  0  0
    6.5273    2.0968   -0.5948 C   0  0  0  0  0  0  0  0  0  0  0  0
    6.2349    2.7281    0.7601 C   0  0  0  0  0  0  0  0  0  0  0  0
   -3.4257    3.4345   -0.4038 C   0  0  0  0  0  0  0  0  0  0  0  0
    0.8870   -3.6564   -0.5427 C   0  0  0  0  0  0  0  0  0  0  0  0
   -2.5530    0.4950    0.8223 C   0  0  0  0  0  0  0  0  0  0  0  0
   -0.0192   -4.5641    0.1934 C   0  0  0  0  0  0  0  0  0  0  0  0
   -2.0547    0.8581    3.1201 C   0  0  0  0  0  0  0  0  0  0  0  0
   -2.4330    1.8299    4.2357 C   0  0  0  0  0  0  0  0  0  0  0  0
   -2.4678   -0.5668    3.4858 C   0  0  0  0  0  0  0  0  0  0  0  0
   -0.5570    0.9329    2.8267 C   0  0  0  0  0  0  0  0  0  0  0  0
   -1.1657   -6.6113   -0.0663 C   0  0  0  0  0  0  0  0  0  0  0  0
    1.3041    0.1957    0.1930 H   0  0  0  0  0  0  0  0  0  0  0  0
    2.4769   -1.9257   -1.6470 H   0  0  0  0  0  0  0  0  0  0  0  0
    2.8150    0.5194   -2.4397 H   0  0  0  0  0  0  0  0  0  0  0  0
    2.1496    1.8386   -1.4973 H   0  0  0  0  0  0  0  0  0  0  0  0
    5.4513   -0.4840    0.1173 H   0  0  0  0  0  0  0  0  0  0  0  0
    4.8164   -0.8695   -1.4662 H   0  0  0  0  0  0  0  0  0  0  0  0
    4.0263   -2.4654    0.1666 H   0  0  0  0  0  0  0  0  0  0  0  0
    3.3600   -1.2059    1.1902 H   0  0  0  0  0  0  0  0  0  0  0  0
    0.6176   -0.2415   -2.7512 H   0  0  0  0  0  0  0  0  0  0  0  0
   -0.2646   -1.0837   -1.4716 H   0  0  0  0  0  0  0  0  0  0  0  0
   -2.7073   -0.7028   -1.4201 H   0  0  0  0  0  0  0  0  0  0  0  0
   -1.6100    0.5102   -3.2615 H   0  0  0  0  0  0  0  0  0  0  0  0
   -2.0334    2.0517   -2.5653 H   0  0  0  0  0  0  0  0  0  0  0  0
    0.9970   -2.2737    1.0436 H   0  0  0  0  0  0  0  0  0  0  0  0
   -3.9721   -0.0479   -3.5207 H   0  0  0  0  0  0  0  0  0  0  0  0
   -4.9234   -0.5014   -2.1148 H   0  0  0  0  0  0  0  0  0  0  0  0
   -4.5943    2.1513    0.8077 H   0  0  0  0  0  0  0  0  0  0  0  0
   -5.9058    1.4693   -3.1718 H   0  0  0  0  0  0  0  0  0  0  0  0
   -4.3951    2.3629   -3.0428 H   0  0  0  0  0  0  0  0  0  0  0  0
   -5.9450    2.9558   -1.1827 H   0  0  0  0  0  0  0  0  0  0  0  0
   -6.0845    1.2592   -0.7470 H   0  0  0  0  0  0  0  0  0  0  0  0
    5.2203    2.4115    2.6219 H   0  0  0  0  0  0  0  0  0  0  0  0
    5.7121    0.9184    1.8448 H   0  0  0  0  0  0  0  0  0  0  0  0
    6.9747    1.1047   -0.4818 H   0  0  0  0  0  0  0  0  0  0  0  0
    7.2646    2.7129   -1.1207 H   0  0  0  0  0  0  0  0  0  0  0  0
    5.8440    3.7459    0.6298 H   0  0  0  0  0  0  0  0  0  0  0  0
    7.1895    2.8415    1.2898 H   0  0  0  0  0  0  0  0  0  0  0  0
   -3.0624    3.5602   -1.4259 H   0  0  0  0  0  0  0  0  0  0  0  0
   -2.5623    3.4936    0.2669 H   0  0  0  0  0  0  0  0  0  0  0  0
   -4.0770    4.2872   -0.1831 H   0  0  0  0  0  0  0  0  0  0  0  0
    1.1897   -3.9282   -1.5482 H   0  0  0  0  0  0  0  0  0  0  0  0
   -1.9233    1.5920    5.1750 H   0  0  0  0  0  0  0  0  0  0  0  0
   -2.1811    2.8592    3.9553 H   0  0  0  0  0  0  0  0  0  0  0  0
   -3.5143    1.8139    4.4142 H   0  0  0  0  0  0  0  0  0  0  0  0
   -2.1668   -0.7997    4.5142 H   0  0  0  0  0  0  0  0  0  0  0  0
   -2.0180   -1.3460    2.8653 H   0  0  0  0  0  0  0  0  0  0  0  0
   -3.5551   -0.6888    3.4189 H   0  0  0  0  0  0  0  0  0  0  0  0
    0.0157    0.9331    3.7619 H   0  0  0  0  0  0  0  0  0  0  0  0
   -0.3074    1.8507    2.2820 H   0  0  0  0  0  0  0  0  0  0  0  0
   -0.1647    0.0941    2.2468 H   0  0  0  0  0  0  0  0  0  0  0  0
   -0.7182   -7.0523    0.8295 H   0  0  0  0  0  0  0  0  0  0  0  0
   -1.3038   -7.3974   -0.8134 H   0  0  0  0  0  0  0  0  0  0  0  0
   -2.1404   -6.1710    0.1649 H   0  0  0  0  0  0  0  0  0  0  0  0
  1 10  1  0  0  0  0
  1 24  1  0  0  0  0
  2 10  1  0  0  0  0
  2 25  1  0  0  0  0
  3 18  2  0  0  0  0
  4 29  1  0  0  0  0
  4 31  1  0  0  0  0
  5 29  2  0  0  0  0
  6 30  1  0  0  0  0
  6 35  1  0  0  0  0
  7 30  2  0  0  0  0
  8 16  1  0  0  0  0
  8 21  1  0  0  0  0
  8 29  1  0  0  0  0
  9 11  1  0  0  0  0
  9 12  1  0  0  0  0
  9 15  1  0  0  0  0
  9 36  1  0  0  0  0
 10 12  1  0  0  0  0
 10 13  1  0  0  0  0
 11 14  1  0  0  0  0
 11 19  1  0  0  0  0
 11 37  1  0  0  0  0
 12 38  1  0  0  0  0
 12 39  1  0  0  0  0
 13 14  1  0  0  0  0
 13 40  1  0  0  0  0
 13 41  1  0  0  0  0
 14 42  1  0  0  0  0
 14 43  1  0  0  0  0
 15 18  1  0  0  0  0
 15 44  1  0  0  0  0
 15 45  1  0  0  0  0
 16 17  1  0  0  0  0
 16 20  1  0  0  0  0
 16 46  1  0  0  0  0
 17 18  1  0  0  0  0
 17 47  1  0  0  0  0
 17 48  1  0  0  0  0
 19 28  2  0  0  0  0
 19 49  1  0  0  0  0
 20 22  1  0  0  0  0
 20 50  1  0  0  0  0
 20 51  1  0  0  0  0
 21 23  1  0  0  0  0
 21 27  1  0  0  0  0
 21 52  1  0  0  0  0
 22 23  1  0  0  0  0
 22 53  1  0  0  0  0
 22 54  1  0  0  0  0
 23 55  1  0  0  0  0
 23 56  1  0  0  0  0
 24 26  1  0  0  0  0
 24 57  1  0  0  0  0
 24 58  1  0  0  0  0
 25 26  1  0  0  0  0
 25 59  1  0  0  0  0
 25 60  1  0  0  0  0
 26 61  1  0  0  0  0
 26 62  1  0  0  0  0
 27 63  1  0  0  0  0
 27 64  1  0  0  0  0
 27 65  1  0  0  0  0
 28 30  1  0  0  0  0
 28 66  1  0  0  0  0
 31 32  1  0  0  0  0
 31 33  1  0  0  0  0
 31 34  1  0  0  0  0
 32 67  1  0  0  0  0
 32 68  1  0  0  0  0
 32 69  1  0  0  0  0
 33 70  1  0  0  0  0
 33 71  1  0  0  0  0
 33 72  1  0  0  0  0
 34 73  1  0  0  0  0
 34 74  1  0  0  0  0
 34 75  1  0  0  0  0
 35 76  1  0  0  0  0
 35 77  1  0  0  0  0
 35 78  1  0  0  0  0
M  END
> <PUBCHEM_COMPOUND_CID>
101569424

> <PUBCHEM_CONFORMER_RMSD>
1.2

> <PUBCHEM_CONFORMER_DIVERSEORDER>
2
26
74
67
122
124
73
65
36
45
39
30
54
98
22
103
87
44
55
70
32
77
100
79
133
28
63
126
46
92
131
57
25
58
114
24
108
83
95
94
128
89
123
69
111
56
115
113
48
78
129
6
23
88
68
96
130
33
118
91
62
120
29
16
117
64
1
93
21
13
121
31
43
101
12
61
17
41
99
104
82
42
49
59
85
19
14
20
109
53
34
72
132
125
4
60
27
76
97
15
75
116
11
50
71
52
8
107
102
127
10
3
90
47
119
66
37
112
7
80
81
40
86
105
5
51
38
18
84
9
110
106
35

> <PUBCHEM_MMFF94_PARTIAL_CHARGES>
25
1 -0.46
10 0.46
11 0.14
15 0.06
16 0.3
17 0.06
18 0.45
19 -0.29
2 -0.46
21 0.3
24 0.23
25 0.23
28 -0.14
29 0.78
3 -0.57
30 0.71
31 0.28
35 0.28
4 -0.43
49 0.15
5 -0.57
6 -0.43
66 0.15
7 -0.57
8 -0.66

> <PUBCHEM_EFFECTIVE_ROTOR_COUNT>
13.2

> <PUBCHEM_PHARMACOPHORE_FEATURES>
7
1 3 acceptor
1 5 acceptor
1 7 acceptor
4 31 32 33 34 hydrophobe
6 1 2 10 24 25 26 rings
6 8 16 20 21 22 23 rings
6 9 10 11 12 13 14 rings

> <PUBCHEM_HEAVY_ATOM_COUNT>
35

> <PUBCHEM_ATOM_DEF_STEREO_COUNT>
4

> <PUBCHEM_ATOM_UDEF_STEREO_COUNT>
0

> <PUBCHEM_BOND_DEF_STEREO_COUNT>
1

> <PUBCHEM_BOND_UDEF_STEREO_COUNT>
0

> <PUBCHEM_ISOTOPIC_ATOM_COUNT>
0

> <PUBCHEM_COMPONENT_COUNT>
1

> <PUBCHEM_CACTVS_TAUTO_COUNT>
3

> <PUBCHEM_CONFORMER_ID>
060DD39000000002

> <PUBCHEM_MMFF94_ENERGY>
77.3864

> <PUBCHEM_FEATURE_SELFOVERLAP>
35.523

> <PUBCHEM_SHAPE_FINGERPRINT>
10032420 55 17912611852486805407
10670039 82 15841556275783519680
11007060 377 18343302587543053364
12156800 1 17326002684730661475
12440605 4 18262230144835366722
12655364 131 18199175197512946210
12788726 201 17467070078899640478
144659 39 17312821606604515124
15324884 4 17824289058026575046
17974551 9 16966098087553507497
17980427 26 17840336357203353066
19319366 153 18269818857518816343
20511986 3 17915435260728827533
21033648 29 18408327692040370580
21133410 230 17261575787314952248
23559900 14 16806177540661974550
24180151 214 18131067139114231099
24941158 1 17904498310823593059
27425 322 17486245277439367369
376196 1 17532635859222103725
4408954 64 15168621881608261515
469060 322 18118693346375464384
563151 74 18194142753845380873
6677587 24 17320370733081242727
9658208 31 18410295843971579430
9981440 41 18333729104765315205

> <PUBCHEM_SHAPE_MULTIPOLES>
693.65
11.75
6.12
3.36
11.95
16.26
-3.66
-14.31
3.26
-1.64
-0.15
-4.46
-2.22
0.97

> <PUBCHEM_SHAPE_SELFOVERLAP>
1383.353

> <PUBCHEM_SHAPE_VOLUME>
410.4

> <PUBCHEM_COORDINATE_TYPE>
2
5
10

$$$$
