101584237
  -OEChem-03052615073D

 46 49  0     1  0  0  0  0  0999 V2000
    0.8208    0.5524   -0.0999 O   0  0  0  0  0  0  0  0  0  0  0  0
   -3.9929    0.6796    0.1009 O   0  0  0  0  0  0  0  0  0  0  0  0
    3.1280   -2.2868    0.2641 O   0  0  0  0  0  0  0  0  0  0  0  0
   -1.8425   -3.4901    0.2164 O   0  0  0  0  0  0  0  0  0  0  0  0
    0.7363   -3.5340    0.1142 O   0  0  0  0  0  0  0  0  0  0  0  0
    1.9439   -0.1856    0.4032 C   0  0  1  0  0  0  0  0  0  0  0  0
    2.0468   -1.5489   -0.2780 C   0  0  2  0  0  0  0  0  0  0  0  0
   -0.3785   -0.1089   -0.0061 C   0  0  0  0  0  0  0  0  0  0  0  0
   -4.0137    2.1210    0.0771 C   0  0  0  0  0  0  0  0  0  0  0  0
   -0.4631   -1.5055    0.0552 C   0  0  0  0  0  0  0  0  0  0  0  0
   -1.5527    0.6662   -0.0056 C   0  0  0  0  0  0  0  0  0  0  0  0
   -2.7929    0.0247    0.0885 C   0  0  0  0  0  0  0  0  0  0  0  0
    0.7711   -2.3155   -0.0120 C   0  0  0  0  0  0  0  0  0  0  0  0
   -1.7042   -2.1365    0.1511 C   0  0  0  0  0  0  0  0  0  0  0  0
   -2.6707    2.7939   -0.0547 C   0  0  0  0  0  0  0  0  0  0  0  0
    3.1805    0.6598    0.1637 C   0  0  0  0  0  0  0  0  0  0  0  0
   -1.5191    2.1210   -0.0946 C   0  0  0  0  0  0  0  0  0  0  0  0
   -2.8661   -1.3688    0.1696 C   0  0  0  0  0  0  0  0  0  0  0  0
   -4.6795    2.5687    1.3837 C   0  0  0  0  0  0  0  0  0  0  0  0
   -4.8958    2.5168   -1.1131 C   0  0  0  0  0  0  0  0  0  0  0  0
    4.2558    0.5895    1.0492 C   0  0  0  0  0  0  0  0  0  0  0  0
    3.2418    1.5075   -0.9422 C   0  0  0  0  0  0  0  0  0  0  0  0
    5.3928    1.3671    0.8289 C   0  0  0  0  0  0  0  0  0  0  0  0
    4.3787    2.2851   -1.1626 C   0  0  0  0  0  0  0  0  0  0  0  0
    5.4542    2.2150   -0.2770 C   0  0  0  0  0  0  0  0  0  0  0  0
   -1.9789   -4.1878   -1.0202 C   0  0  0  0  0  0  0  0  0  0  0  0
    1.8166   -0.2950    1.4906 H   0  0  0  0  0  0  0  0  0  0  0  0
    2.1762   -1.4573   -1.3630 H   0  0  0  0  0  0  0  0  0  0  0  0
   -2.6449    3.8793   -0.1145 H   0  0  0  0  0  0  0  0  0  0  0  0
   -0.5752    2.6443   -0.1871 H   0  0  0  0  0  0  0  0  0  0  0  0
   -3.8362   -1.8561    0.2416 H   0  0  0  0  0  0  0  0  0  0  0  0
   -4.0865    2.2557    2.2516 H   0  0  0  0  0  0  0  0  0  0  0  0
   -4.8068    3.6560    1.4286 H   0  0  0  0  0  0  0  0  0  0  0  0
   -5.6646    2.1016    1.5000 H   0  0  0  0  0  0  0  0  0  0  0  0
   -5.0340    3.6016   -1.1797 H   0  0  0  0  0  0  0  0  0  0  0  0
   -4.4586    2.1670   -2.0561 H   0  0  0  0  0  0  0  0  0  0  0  0
   -5.8841    2.0479   -1.0397 H   0  0  0  0  0  0  0  0  0  0  0  0
    4.2205   -0.0663    1.9150 H   0  0  0  0  0  0  0  0  0  0  0  0
    2.4256    1.5715   -1.6565 H   0  0  0  0  0  0  0  0  0  0  0  0
    3.2051   -3.1111   -0.2461 H   0  0  0  0  0  0  0  0  0  0  0  0
    6.2302    1.3124    1.5183 H   0  0  0  0  0  0  0  0  0  0  0  0
    4.4282    2.9428   -2.0255 H   0  0  0  0  0  0  0  0  0  0  0  0
    6.3397    2.8198   -0.4491 H   0  0  0  0  0  0  0  0  0  0  0  0
   -1.8560   -5.2568   -0.8260 H   0  0  0  0  0  0  0  0  0  0  0  0
   -1.2218   -3.8734   -1.7459 H   0  0  0  0  0  0  0  0  0  0  0  0
   -2.9785   -4.0202   -1.4331 H   0  0  0  0  0  0  0  0  0  0  0  0
  1  6  1  0  0  0  0
  1  8  1  0  0  0  0
  2  9  1  0  0  0  0
  2 12  1  0  0  0  0
  3  7  1  0  0  0  0
  3 40  1  0  0  0  0
  4 14  1  0  0  0  0
  4 26  1  0  0  0  0
  5 13  2  0  0  0  0
  6  7  1  0  0  0  0
  6 16  1  0  0  0  0
  6 27  1  0  0  0  0
  7 13  1  0  0  0  0
  7 28  1  0  0  0  0
  8 10  1  0  0  0  0
  8 11  2  0  0  0  0
  9 15  1  0  0  0  0
  9 19  1  0  0  0  0
  9 20  1  0  0  0  0
 10 13  1  0  0  0  0
 10 14  2  0  0  0  0
 11 12  1  0  0  0  0
 11 17  1  0  0  0  0
 12 18  2  0  0  0  0
 14 18  1  0  0  0  0
 15 17  2  0  0  0  0
 15 29  1  0  0  0  0
 16 21  2  0  0  0  0
 16 22  1  0  0  0  0
 17 30  1  0  0  0  0
 18 31  1  0  0  0  0
 19 32  1  0  0  0  0
 19 33  1  0  0  0  0
 19 34  1  0  0  0  0
 20 35  1  0  0  0  0
 20 36  1  0  0  0  0
 20 37  1  0  0  0  0
 21 23  1  0  0  0  0
 21 38  1  0  0  0  0
 22 24  2  0  0  0  0
 22 39  1  0  0  0  0
 23 25  2  0  0  0  0
 23 41  1  0  0  0  0
 24 25  1  0  0  0  0
 24 42  1  0  0  0  0
 25 43  1  0  0  0  0
 26 44  1  0  0  0  0
 26 45  1  0  0  0  0
 26 46  1  0  0  0  0
M  END
> <PUBCHEM_COMPOUND_CID>
101584237

> <PUBCHEM_CONFORMER_RMSD>
0.6

> <PUBCHEM_CONFORMER_DIVERSEORDER>
1
5
4
2
3

> <PUBCHEM_MMFF94_PARTIAL_CHARGES>
33
1 -0.36
10 0.09
11 0.03
12 0.08
13 0.42
14 0.08
15 -0.29
16 -0.14
17 -0.18
18 -0.15
2 -0.36
21 -0.15
22 -0.15
23 -0.15
24 -0.15
25 -0.15
26 0.28
29 0.15
3 -0.68
30 0.15
31 0.15
38 0.15
39 0.15
4 -0.36
40 0.4
41 0.15
42 0.15
43 0.15
5 -0.57
6 0.42
7 0.34
8 0.08
9 0.42

> <PUBCHEM_EFFECTIVE_ROTOR_COUNT>
3

> <PUBCHEM_PHARMACOPHORE_FEATURES>
11
1 1 acceptor
1 2 acceptor
1 3 acceptor
1 3 donor
1 4 acceptor
1 5 acceptor
3 9 19 20 hydrophobe
6 1 6 7 8 10 13 rings
6 16 21 22 23 24 25 rings
6 2 9 11 12 15 17 rings
6 8 10 11 12 14 18 rings

> <PUBCHEM_HEAVY_ATOM_COUNT>
26

> <PUBCHEM_ATOM_DEF_STEREO_COUNT>
2

> <PUBCHEM_ATOM_UDEF_STEREO_COUNT>
0

> <PUBCHEM_BOND_DEF_STEREO_COUNT>
0

> <PUBCHEM_BOND_UDEF_STEREO_COUNT>
0

> <PUBCHEM_ISOTOPIC_ATOM_COUNT>
0

> <PUBCHEM_COMPONENT_COUNT>
1

> <PUBCHEM_CACTVS_TAUTO_COUNT>
1

> <PUBCHEM_CONFORMER_ID>
060E0D6D00000001

> <PUBCHEM_MMFF94_ENERGY>
92.1647

> <PUBCHEM_FEATURE_SELFOVERLAP>
55.9

> <PUBCHEM_SHAPE_FINGERPRINT>
10411042 1 17618503628379922023
10493431 412 18411707569282794441
10615611 76 17459765906860060844
10616163 171 18337392754981636122
10670039 82 18263373636932755572
10871710 139 18120944059578352207
1100329 8 18267300928915814706
11135609 187 18337943512193583845
11370993 70 18337948987358397073
12107183 9 18262786373390796874
12173636 292 18411416223969649052
12390115 104 18270697427307088689
12422481 6 17822282445295733804
12553582 1 17833830847370658939
12788726 201 17903647624332043222
13140716 1 18265620871032681043
13540713 5 18262502780658111914
138480 1 17474106497233448811
13965767 371 17895470324280573612
14117953 113 18261950722467622580
14294032 229 18341339997804976619
14508225 48 17694772322409311191
14767858 380 18268973406866765829
14790565 3 18340494369920583177
14848178 96 18339922610709441937
15131766 46 15866059025108818492
16087824 20 18340204220217931415
16992727 255 18191561217045394903
18785283 64 18049449140974764651
20715895 44 18118392956606245869
21033650 10 18120397577368209932
21756936 100 18270672195265677172
21859007 373 17098883955051025484
22149856 69 18193019066611704041
23227448 37 18410856602690098924
23558518 356 18334011731136471002
23559900 14 18200030617226968206
23929065 36 17911776257761163010
283562 15 18121494919347054370
3178227 256 18049457940998946019
335352 9 18194399996653621558
350125 39 18193563268067084584
376196 1 17972311816460070377
394222 165 18189612744210659835
469060 322 18120677948079396649
474 4 18336264535507792520
5048184 11 18410016532983411816
5104073 3 18335425612741718107
5265222 85 17982178014133812236
6034566 193 18264791972029964025
6327066 14 18334570235424175349
633830 44 17986396577412636269
6700243 42 17480901874546127430
7064713 232 18336260228188643428
7808743 9 18338516443160052864
9981440 41 18335137613377706547

> <PUBCHEM_SHAPE_MULTIPOLES>
505.72
10.53
4.71
0.95
6.75
3.9
0.02
-11.14
-0.43
-3.5
0.73
0.05
-0.39
-0.83

> <PUBCHEM_SHAPE_SELFOVERLAP>
1120.389

> <PUBCHEM_SHAPE_VOLUME>
269.9

> <PUBCHEM_COORDINATE_TYPE>
2
5
10

$$$$
