101899130
  -OEChem-03052615023D

 46 49  0     1  0  0  0  0  0999 V2000
    2.1282   -2.0656   -2.7312 Cl  0  0  0  0  0  0  0  0  0  0  0  0
    3.7282   -3.7102    2.1371 Cl  0  0  0  0  0  0  0  0  0  0  0  0
   -3.4421    1.9622    1.3436 O   0  0  0  0  0  0  0  0  0  0  0  0
    0.7295    0.9255   -1.6743 N   0  0  0  0  0  0  0  0  0  0  0  0
   -0.8702    1.9675    0.6206 N   0  0  0  0  0  0  0  0  0  0  0  0
   -3.5119   -1.3253   -0.1505 C   0  0  0  0  0  0  0  0  0  0  0  0
   -2.2962   -1.1692   -1.0769 C   0  0  0  0  0  0  0  0  0  0  0  0
   -1.3181   -0.0792   -0.6688 C   0  0  0  0  0  0  0  0  0  0  0  0
   -4.1155    0.0572    0.0892 C   0  0  0  0  0  0  0  0  0  0  0  0
    0.0715   -0.2977   -1.2372 C   0  0  2  0  0  0  0  0  0  0  0  0
   -1.6609    0.9589    0.1219 C   0  0  0  0  0  0  0  0  0  0  0  0
   -4.5570   -2.2283   -0.8299 C   0  0  0  0  0  0  0  0  0  0  0  0
   -3.1057   -1.9838    1.1843 C   0  0  0  0  0  0  0  0  0  0  0  0
   -3.0924    1.0482    0.5936 C   0  0  0  0  0  0  0  0  0  0  0  0
    1.0083   -1.1714   -0.4129 C   0  0  0  0  0  0  0  0  0  0  0  0
    1.1552    1.9352   -0.8257 C   0  0  0  0  0  0  0  0  0  0  0  0
    0.4241    2.3989    0.2786 C   0  0  0  0  0  0  0  0  0  0  0  0
    1.9611   -1.9937   -1.0146 C   0  0  0  0  0  0  0  0  0  0  0  0
    0.8971   -1.1340    0.9771 C   0  0  0  0  0  0  0  0  0  0  0  0
    2.4194    2.5092   -1.0874 C   0  0  0  0  0  0  0  0  0  0  0  0
    0.9981    3.3970    1.0998 C   0  0  0  0  0  0  0  0  0  0  0  0
    2.9646    3.4981   -0.2709 C   0  0  0  0  0  0  0  0  0  0  0  0
    2.2529    3.9400    0.8316 C   0  0  0  0  0  0  0  0  0  0  0  0
    2.8024   -2.7787   -0.2262 C   0  0  0  0  0  0  0  0  0  0  0  0
    1.7383   -1.9193    1.7654 C   0  0  0  0  0  0  0  0  0  0  0  0
    2.6910   -2.7417    1.1637 C   0  0  0  0  0  0  0  0  0  0  0  0
   -2.6260   -0.9469   -2.1011 H   0  0  0  0  0  0  0  0  0  0  0  0
   -1.7739   -2.1344   -1.1237 H   0  0  0  0  0  0  0  0  0  0  0  0
   -4.9239   -0.0078    0.8277 H   0  0  0  0  0  0  0  0  0  0  0  0
   -4.5413    0.4709   -0.8333 H   0  0  0  0  0  0  0  0  0  0  0  0
   -0.1251   -0.8352   -2.1740 H   0  0  0  0  0  0  0  0  0  0  0  0
   -5.4429   -2.3532   -0.1970 H   0  0  0  0  0  0  0  0  0  0  0  0
   -4.1468   -3.2240   -1.0327 H   0  0  0  0  0  0  0  0  0  0  0  0
   -4.8890   -1.8049   -1.7846 H   0  0  0  0  0  0  0  0  0  0  0  0
   -3.9750   -2.1060    1.8406 H   0  0  0  0  0  0  0  0  0  0  0  0
   -2.3630   -1.3963    1.7329 H   0  0  0  0  0  0  0  0  0  0  0  0
   -2.6767   -2.9782    1.0159 H   0  0  0  0  0  0  0  0  0  0  0  0
    1.2321    0.8535   -2.5548 H   0  0  0  0  0  0  0  0  0  0  0  0
   -1.3117    2.5175    1.3526 H   0  0  0  0  0  0  0  0  0  0  0  0
    0.1787   -0.5088    1.4935 H   0  0  0  0  0  0  0  0  0  0  0  0
    3.0032    2.1669   -1.9409 H   0  0  0  0  0  0  0  0  0  0  0  0
    0.4508    3.7693    1.9647 H   0  0  0  0  0  0  0  0  0  0  0  0
    3.9420    3.9137   -0.4955 H   0  0  0  0  0  0  0  0  0  0  0  0
    2.6650    4.7079    1.4790 H   0  0  0  0  0  0  0  0  0  0  0  0
    3.5461   -3.4206   -0.6938 H   0  0  0  0  0  0  0  0  0  0  0  0
    1.6414   -1.8796    2.8473 H   0  0  0  0  0  0  0  0  0  0  0  0
  1 18  1  0  0  0  0
  2 26  1  0  0  0  0
  3 14  2  0  0  0  0
  4 10  1  0  0  0  0
  4 16  1  0  0  0  0
  4 38  1  0  0  0  0
  5 11  1  0  0  0  0
  5 17  1  0  0  0  0
  5 39  1  0  0  0  0
  6  7  1  0  0  0  0
  6  9  1  0  0  0  0
  6 12  1  0  0  0  0
  6 13  1  0  0  0  0
  7  8  1  0  0  0  0
  7 27  1  0  0  0  0
  7 28  1  0  0  0  0
  8 10  1  0  0  0  0
  8 11  2  0  0  0  0
  9 14  1  0  0  0  0
  9 29  1  0  0  0  0
  9 30  1  0  0  0  0
 10 15  1  0  0  0  0
 10 31  1  0  0  0  0
 11 14  1  0  0  0  0
 12 32  1  0  0  0  0
 12 33  1  0  0  0  0
 12 34  1  0  0  0  0
 13 35  1  0  0  0  0
 13 36  1  0  0  0  0
 13 37  1  0  0  0  0
 15 18  2  0  0  0  0
 15 19  1  0  0  0  0
 16 17  1  0  0  0  0
 16 20  2  0  0  0  0
 17 21  2  0  0  0  0
 18 24  1  0  0  0  0
 19 25  2  0  0  0  0
 19 40  1  0  0  0  0
 20 22  1  0  0  0  0
 20 41  1  0  0  0  0
 21 23  1  0  0  0  0
 21 42  1  0  0  0  0
 22 23  2  0  0  0  0
 22 43  1  0  0  0  0
 23 44  1  0  0  0  0
 24 26  2  0  0  0  0
 24 45  1  0  0  0  0
 25 26  1  0  0  0  0
 25 46  1  0  0  0  0
M  END
> <PUBCHEM_COMPOUND_CID>
101899130

> <PUBCHEM_CONFORMER_RMSD>
0.6

> <PUBCHEM_CONFORMER_DIVERSEORDER>
1
5
4
10
3
8
6
16
9
15
2
7
14
13
11
12

> <PUBCHEM_MMFF94_PARTIAL_CHARGES>
32
1 -0.18
10 0.65
11 0.11
14 0.49
15 -0.14
16 0.1
17 0.1
18 0.18
19 -0.15
2 -0.18
20 -0.15
21 -0.15
22 -0.15
23 -0.15
24 -0.15
25 -0.15
26 0.18
3 -0.57
38 0.4
39 0.4
4 -0.87
40 0.15
41 0.15
42 0.15
43 0.15
44 0.15
45 0.15
46 0.15
5 -0.6
7 0.14
8 -0.28
9 0.06

> <PUBCHEM_EFFECTIVE_ROTOR_COUNT>
2.2

> <PUBCHEM_PHARMACOPHORE_FEATURES>
10
1 3 acceptor
1 4 cation
1 4 donor
1 5 cation
1 5 donor
3 6 12 13 hydrophobe
6 15 18 19 24 25 26 rings
6 16 17 20 21 22 23 rings
6 6 7 8 9 11 14 rings
7 4 5 8 10 11 16 17 rings

> <PUBCHEM_HEAVY_ATOM_COUNT>
26

> <PUBCHEM_ATOM_DEF_STEREO_COUNT>
0

> <PUBCHEM_ATOM_UDEF_STEREO_COUNT>
1

> <PUBCHEM_BOND_DEF_STEREO_COUNT>
0

> <PUBCHEM_BOND_UDEF_STEREO_COUNT>
0

> <PUBCHEM_ISOTOPIC_ATOM_COUNT>
0

> <PUBCHEM_COMPONENT_COUNT>
1

> <PUBCHEM_CACTVS_TAUTO_COUNT>
32

> <PUBCHEM_CONFORMER_ID>
0612DB7A00000001

> <PUBCHEM_MMFF94_ENERGY>
94.0494

> <PUBCHEM_FEATURE_SELFOVERLAP>
50.76

> <PUBCHEM_SHAPE_FINGERPRINT>
10119406 146 17909562988827960932
10930396 42 17470123044221020240
1100329 8 18195819470575858273
11552529 35 17469301661949446330
11578080 2 17822842105098355445
12160290 23 17397841076416721127
12553582 1 18122638145278270815
12788726 201 17831034424560982402
13004483 165 17757828931513874480
13083527 12 18267561659115868647
13140716 1 17905600356619262250
13149001 5 17756109364253608541
133893 2 18260263070649467213
14022347 108 17836950913693765959
14223421 5 18337393850393456093
14466204 15 17688877432741126577
14787075 74 18260561013153309350
14856354 85 18122902024159916462
14955137 171 17977971002734316083
15475509 35 17678772027549085379
17980427 23 17987498339455419757
20028762 73 16759460760155873471
20197701 30 17906726260678465444
20567600 347 18048878790528746635
20600515 1 17983008955884942921
20905425 154 18341903990755287461
21033648 29 17129294252400292451
21120745 212 18122350069385225534
21421861 104 18340214080628431931
21524375 3 18052258685025386668
21650355 55 17977373937212109954
22956985 138 18042388283518159786
23366157 5 18334019414537103189
23419403 2 17245222510531041910
23557571 272 17910393879898891934
23559900 14 18131078104165627543
238918 7 17326637175991528546
25222932 49 17694505145769593471
3383291 50 18197504141954727868
35225 105 16888642355368980512
404807 78 16383918153090286623
43471831 8 18194962074464638577
4409770 3 17323500904797946068
5265222 85 16179353400271763718
59554788 281 17976822317741663772
59755656 520 17614830143262707556
6138700 20 18341059618240443388
7097593 13 18410856516943350345
7364860 26 18342747346354172021
81228 2 17693934090299306180
90316 7 17907010682065882371

> <PUBCHEM_SHAPE_MULTIPOLES>
522.98
6.69
5.36
1.91
6.63
2.3
0.42
-3.57
-1.15
-6.62
-1.9
-1.41
-1.35
-1.59

> <PUBCHEM_SHAPE_SELFOVERLAP>
1126.823

> <PUBCHEM_SHAPE_VOLUME>
287.5

> <PUBCHEM_COORDINATE_TYPE>
2
5
10

$$$$
