102008740
  -OEChem-03052615013D

 37 38  0     1  0  0  0  0  0999 V2000
    0.3019    2.4847   -0.1283 O   0  0  0  0  0  0  0  0  0  0  0  0
    2.1958   -0.3354    0.2966 N   0  0  0  0  0  0  0  0  0  0  0  0
   -1.2628    0.5854    0.2527 C   0  0  1  0  0  0  0  0  0  0  0  0
   -1.0140   -0.9488    0.3716 C   0  0  0  0  0  0  0  0  0  0  0  0
   -0.0009   -0.9115   -0.8112 C   0  0  2  0  0  0  0  0  0  0  0  0
    1.0398    0.1790   -0.4261 C   0  0  1  0  0  0  0  0  0  0  0  0
    0.1799    1.1708    0.3943 C   0  0  1  0  0  0  0  0  0  0  0  0
   -1.7014    0.7496   -1.2303 C   0  0  0  0  0  0  0  0  0  0  0  0
   -0.8363   -0.2923   -1.9598 C   0  0  0  0  0  0  0  0  0  0  0  0
   -2.2578    1.1934    1.2245 C   0  0  0  0  0  0  0  0  0  0  0  0
   -2.2600   -1.8329    0.1770 C   0  0  0  0  0  0  0  0  0  0  0  0
   -0.3858   -1.4211    1.7034 C   0  0  0  0  0  0  0  0  0  0  0  0
    2.8762   -1.3690   -0.4865 C   0  0  0  0  0  0  0  0  0  0  0  0
    3.1254    0.7481    0.6220 C   0  0  0  0  0  0  0  0  0  0  0  0
    0.3876   -1.8863   -1.1061 H   0  0  0  0  0  0  0  0  0  0  0  0
    1.4064    0.6711   -1.3391 H   0  0  0  0  0  0  0  0  0  0  0  0
    0.4606    1.2184    1.4518 H   0  0  0  0  0  0  0  0  0  0  0  0
   -1.5308    1.7584   -1.6194 H   0  0  0  0  0  0  0  0  0  0  0  0
   -2.7658    0.5310   -1.3710 H   0  0  0  0  0  0  0  0  0  0  0  0
   -1.4670   -1.0472   -2.4417 H   0  0  0  0  0  0  0  0  0  0  0  0
   -0.2199    0.1607   -2.7432 H   0  0  0  0  0  0  0  0  0  0  0  0
   -1.9433    1.0410    2.2621 H   0  0  0  0  0  0  0  0  0  0  0  0
   -2.3533    2.2721    1.0605 H   0  0  0  0  0  0  0  0  0  0  0  0
   -3.2526    0.7516    1.1083 H   0  0  0  0  0  0  0  0  0  0  0  0
   -2.9522   -1.7291    1.0201 H   0  0  0  0  0  0  0  0  0  0  0  0
   -1.9707   -2.8881    0.1103 H   0  0  0  0  0  0  0  0  0  0  0  0
   -2.8301   -1.6069   -0.7268 H   0  0  0  0  0  0  0  0  0  0  0  0
   -1.1377   -1.4253    2.5016 H   0  0  0  0  0  0  0  0  0  0  0  0
    0.4359   -0.8107    2.0772 H   0  0  0  0  0  0  0  0  0  0  0  0
   -0.0072   -2.4448    1.6012 H   0  0  0  0  0  0  0  0  0  0  0  0
    1.2367    2.7429   -0.0658 H   0  0  0  0  0  0  0  0  0  0  0  0
    2.3026   -2.2990   -0.5235 H   0  0  0  0  0  0  0  0  0  0  0  0
    3.1011   -1.0412   -1.5080 H   0  0  0  0  0  0  0  0  0  0  0  0
    3.8251   -1.6457   -0.0107 H   0  0  0  0  0  0  0  0  0  0  0  0
    3.4812    1.2716   -0.2731 H   0  0  0  0  0  0  0  0  0  0  0  0
    2.6796    1.4815    1.3006 H   0  0  0  0  0  0  0  0  0  0  0  0
    4.0004    0.3529    1.1515 H   0  0  0  0  0  0  0  0  0  0  0  0
  1  7  1  0  0  0  0
  1 31  1  0  0  0  0
  2  6  1  0  0  0  0
  2 13  1  0  0  0  0
  2 14  1  0  0  0  0
  3  4  1  0  0  0  0
  3  7  1  0  0  0  0
  3  8  1  0  0  0  0
  3 10  1  0  0  0  0
  4  5  1  0  0  0  0
  4 11  1  0  0  0  0
  4 12  1  0  0  0  0
  5  6  1  0  0  0  0
  5  9  1  0  0  0  0
  5 15  1  0  0  0  0
  6  7  1  0  0  0  0
  6 16  1  0  0  0  0
  7 17  1  0  0  0  0
  8  9  1  0  0  0  0
  8 18  1  0  0  0  0
  8 19  1  0  0  0  0
  9 20  1  0  0  0  0
  9 21  1  0  0  0  0
 10 22  1  0  0  0  0
 10 23  1  0  0  0  0
 10 24  1  0  0  0  0
 11 25  1  0  0  0  0
 11 26  1  0  0  0  0
 11 27  1  0  0  0  0
 12 28  1  0  0  0  0
 12 29  1  0  0  0  0
 12 30  1  0  0  0  0
 13 32  1  0  0  0  0
 13 33  1  0  0  0  0
 13 34  1  0  0  0  0
 14 35  1  0  0  0  0
 14 36  1  0  0  0  0
 14 37  1  0  0  0  0
M  END
> <PUBCHEM_COMPOUND_CID>
102008740

> <PUBCHEM_CONFORMER_RMSD>
0.6

> <PUBCHEM_CONFORMER_DIVERSEORDER>
1
3
2

> <PUBCHEM_MMFF94_PARTIAL_CHARGES>
7
1 -0.68
13 0.27
14 0.27
2 -0.81
31 0.4
6 0.27
7 0.28

> <PUBCHEM_EFFECTIVE_ROTOR_COUNT>
2

> <PUBCHEM_PHARMACOPHORE_FEATURES>
5
1 1 acceptor
1 1 donor
1 2 cation
3 4 11 12 hydrophobe
7 3 4 5 6 7 8 9 rings

> <PUBCHEM_HEAVY_ATOM_COUNT>
14

> <PUBCHEM_ATOM_DEF_STEREO_COUNT>
2

> <PUBCHEM_ATOM_UDEF_STEREO_COUNT>
2

> <PUBCHEM_BOND_DEF_STEREO_COUNT>
0

> <PUBCHEM_BOND_UDEF_STEREO_COUNT>
0

> <PUBCHEM_ISOTOPIC_ATOM_COUNT>
0

> <PUBCHEM_COMPONENT_COUNT>
1

> <PUBCHEM_CACTVS_TAUTO_COUNT>
1

> <PUBCHEM_CONFORMER_ID>
061487A400000001

> <PUBCHEM_MMFF94_ENERGY>
70.4225

> <PUBCHEM_FEATURE_SELFOVERLAP>
25.371

> <PUBCHEM_SHAPE_FINGERPRINT>
12423570 1 17274271659228797623
12491281 212 17274540919181550337
12524768 44 18342452608808588340
13024252 1 17603868862325361278
13214271 11 18342171206967725448
137420 1 17619679990162525559
14817 1 18045816466220311583
15557651 10 17604694570020275525
16945 1 18124314900362689134
20653085 51 17274266032642200584
21501502 16 18117845618747629933
22344851 262 17703512103687649717
23419403 2 17686873404878197877
2748010 2 18341896294463672910
369184 2 18334849502887181634
5084963 1 18114176479673335351
528886 8 17773303557026419759
598444 67 17907317458795394318
68250623 7 18197228138048979345

> <PUBCHEM_SHAPE_MULTIPOLES>
277.26
3.53
1.93
1.47
2.71
0.31
-0.21
-0.34
0.47
-0.33
0.29
-0.59
-0.2
0.2

> <PUBCHEM_SHAPE_SELFOVERLAP>
575.687

> <PUBCHEM_SHAPE_VOLUME>
166

> <PUBCHEM_COORDINATE_TYPE>
2
5
10

$$$$
