102005470
  -OEChem-03052615043D

 84 87  0     0  0  0  0  0  0999 V2000
   -3.4061    3.7294    3.0215 Br  0  0  0  0  0  0  0  0  0  0  0  0
   -2.9467   -4.4685    0.8588 Br  0  0  0  0  0  0  0  0  0  0  0  0
    7.4665   -0.3485    0.2455 Si  0  0  0  0  0  0  0  0  0  0  0  0
    6.3041    0.5110   -0.6055 O   0  0  0  0  0  0  0  0  0  0  0  0
   -4.2883    1.0931    1.6711 O   0  0  0  0  0  0  0  0  0  0  0  0
   -1.8938   -1.6317    1.4874 O   0  0  0  0  0  0  0  0  0  0  0  0
   -4.8290   -1.0606    2.4921 O   0  0  0  0  0  0  0  0  0  0  0  0
    0.2883   -0.7447    1.7243 O   0  0  0  0  0  0  0  0  0  0  0  0
    7.1954   -2.2028    0.0843 C   0  0  0  0  0  0  0  0  0  0  0  0
    8.2847   -2.9700    0.8660 C   0  0  0  0  0  0  0  0  0  0  0  0
    5.8114   -2.5902    0.6507 C   0  0  0  0  0  0  0  0  0  0  0  0
    7.2602   -2.6240   -1.4008 C   0  0  0  0  0  0  0  0  0  0  0  0
    7.3757    0.0959    2.0744 C   0  0  0  0  0  0  0  0  0  0  0  0
    9.1981    0.0589   -0.3659 C   0  0  0  0  0  0  0  0  0  0  0  0
    6.3332    1.9316   -0.5953 C   0  0  0  0  0  0  0  0  0  0  0  0
    5.1785    2.4535   -1.4383 C   0  0  0  0  0  0  0  0  0  0  0  0
    3.8283    2.0004   -0.8872 C   0  0  0  0  0  0  0  0  0  0  0  0
    2.6586    2.5603   -1.7108 C   0  0  0  0  0  0  0  0  0  0  0  0
    1.3362    2.0919   -1.2044 C   0  0  0  0  0  0  0  0  0  0  0  0
    0.6597    2.8311   -0.2336 C   0  0  0  0  0  0  0  0  0  0  0  0
   -1.1537    1.2093   -0.2513 C   0  0  0  0  0  0  0  0  0  0  0  0
   -0.5863    2.4036    0.2534 C   0  0  0  0  0  0  0  0  0  0  0  0
    0.7782    0.9175   -1.7007 C   0  0  0  0  0  0  0  0  0  0  0  0
   -2.3995    0.7816    0.2359 C   0  0  0  0  0  0  0  0  0  0  0  0
   -0.4586    0.4779   -1.2281 C   0  0  0  0  0  0  0  0  0  0  0  0
   -3.0256   -0.4405   -0.2518 C   0  0  0  0  0  0  0  0  0  0  0  0
   -3.0761    1.5208    1.2065 C   0  0  0  0  0  0  0  0  0  0  0  0
   -1.2813    3.1348    1.2303 C   0  0  0  0  0  0  0  0  0  0  0  0
   -3.8913   -0.4271   -1.3576 C   0  0  0  0  0  0  0  0  0  0  0  0
   -2.5182    2.6951    1.7027 C   0  0  0  0  0  0  0  0  0  0  0  0
   -2.7390   -1.6330    0.4134 C   0  0  0  0  0  0  0  0  0  0  0  0
   -4.4744   -1.6403   -1.7948 C   0  0  0  0  0  0  0  0  0  0  0  0
   -3.3123   -2.8259   -0.0166 C   0  0  0  0  0  0  0  0  0  0  0  0
   -4.1910    0.7637   -2.0391 C   0  0  0  0  0  0  0  0  0  0  0  0
   -4.1745   -2.8311   -1.1134 C   0  0  0  0  0  0  0  0  0  0  0  0
   -5.3399   -1.6269   -2.9006 C   0  0  0  0  0  0  0  0  0  0  0  0
   -5.0534    0.7585   -3.1358 C   0  0  0  0  0  0  0  0  0  0  0  0
   -5.6268   -0.4345   -3.5658 C   0  0  0  0  0  0  0  0  0  0  0  0
   -4.2820    0.2248    2.8060 C   0  0  0  0  0  0  0  0  0  0  0  0
   -0.5032   -1.8273    1.2228 C   0  0  0  0  0  0  0  0  0  0  0  0
   -6.1824   -0.9783    2.0647 C   0  0  0  0  0  0  0  0  0  0  0  0
    1.6763   -0.9388    1.4858 C   0  0  0  0  0  0  0  0  0  0  0  0
    8.1284   -4.0524    0.7783 H   0  0  0  0  0  0  0  0  0  0  0  0
    8.2733   -2.7339    1.9361 H   0  0  0  0  0  0  0  0  0  0  0  0
    9.2918   -2.7640    0.4861 H   0  0  0  0  0  0  0  0  0  0  0  0
    5.6327   -3.6662    0.5362 H   0  0  0  0  0  0  0  0  0  0  0  0
    4.9968   -2.0697    0.1322 H   0  0  0  0  0  0  0  0  0  0  0  0
    5.7246   -2.3633    1.7198 H   0  0  0  0  0  0  0  0  0  0  0  0
    7.0859   -3.7016   -1.5067 H   0  0  0  0  0  0  0  0  0  0  0  0
    6.5004   -2.1120   -2.0039 H   0  0  0  0  0  0  0  0  0  0  0  0
    8.2389   -2.4114   -1.8469 H   0  0  0  0  0  0  0  0  0  0  0  0
    6.3784   -0.1064    2.4749 H   0  0  0  0  0  0  0  0  0  0  0  0
    8.1060   -0.4736    2.6556 H   0  0  0  0  0  0  0  0  0  0  0  0
    7.5897    1.1592    2.2184 H   0  0  0  0  0  0  0  0  0  0  0  0
    9.3071   -0.1946   -1.4242 H   0  0  0  0  0  0  0  0  0  0  0  0
    9.4016    1.1278   -0.2507 H   0  0  0  0  0  0  0  0  0  0  0  0
    9.9563   -0.4880    0.2014 H   0  0  0  0  0  0  0  0  0  0  0  0
    7.2755    2.2951   -1.0234 H   0  0  0  0  0  0  0  0  0  0  0  0
    6.2413    2.3125    0.4295 H   0  0  0  0  0  0  0  0  0  0  0  0
    5.2833    2.0842   -2.4657 H   0  0  0  0  0  0  0  0  0  0  0  0
    5.2209    3.5481   -1.4728 H   0  0  0  0  0  0  0  0  0  0  0  0
    3.7300    2.3240    0.1570 H   0  0  0  0  0  0  0  0  0  0  0  0
    3.7747    0.9044   -0.8815 H   0  0  0  0  0  0  0  0  0  0  0  0
    2.7739    2.2701   -2.7633 H   0  0  0  0  0  0  0  0  0  0  0  0
    2.6917    3.6576   -1.7039 H   0  0  0  0  0  0  0  0  0  0  0  0
    1.1057    3.7472    0.1501 H   0  0  0  0  0  0  0  0  0  0  0  0
    1.2962    0.3330   -2.4565 H   0  0  0  0  0  0  0  0  0  0  0  0
   -0.8516   -0.4394   -1.6583 H   0  0  0  0  0  0  0  0  0  0  0  0
   -0.8478    4.0542    1.6212 H   0  0  0  0  0  0  0  0  0  0  0  0
   -3.7718    1.7228   -1.7464 H   0  0  0  0  0  0  0  0  0  0  0  0
   -4.6212   -3.7666   -1.4469 H   0  0  0  0  0  0  0  0  0  0  0  0
   -5.7995   -2.5475   -3.2544 H   0  0  0  0  0  0  0  0  0  0  0  0
   -5.2774    1.6862   -3.6543 H   0  0  0  0  0  0  0  0  0  0  0  0
   -6.2981   -0.4379   -4.4196 H   0  0  0  0  0  0  0  0  0  0  0  0
   -3.2697    0.0723    3.1987 H   0  0  0  0  0  0  0  0  0  0  0  0
   -4.8775    0.6858    3.6022 H   0  0  0  0  0  0  0  0  0  0  0  0
   -0.2046   -2.7408    1.7494 H   0  0  0  0  0  0  0  0  0  0  0  0
   -0.3067   -1.9776    0.1544 H   0  0  0  0  0  0  0  0  0  0  0  0
   -6.5497   -1.9946    1.8983 H   0  0  0  0  0  0  0  0  0  0  0  0
   -6.2617   -0.4268    1.1234 H   0  0  0  0  0  0  0  0  0  0  0  0
   -6.8012   -0.5058    2.8335 H   0  0  0  0  0  0  0  0  0  0  0  0
    2.0350   -1.8151    2.0340 H   0  0  0  0  0  0  0  0  0  0  0  0
    2.2145   -0.0571    1.8437 H   0  0  0  0  0  0  0  0  0  0  0  0
    1.8750   -1.0610    0.4173 H   0  0  0  0  0  0  0  0  0  0  0  0
  1 30  1  0  0  0  0
  2 33  1  0  0  0  0
  3  4  1  0  0  0  0
  3  9  1  0  0  0  0
  3 13  1  0  0  0  0
  3 14  1  0  0  0  0
  4 15  1  0  0  0  0
  5 27  1  0  0  0  0
  5 39  1  0  0  0  0
  6 31  1  0  0  0  0
  6 40  1  0  0  0  0
  7 39  1  0  0  0  0
  7 41  1  0  0  0  0
  8 40  1  0  0  0  0
  8 42  1  0  0  0  0
  9 10  1  0  0  0  0
  9 11  1  0  0  0  0
  9 12  1  0  0  0  0
 10 43  1  0  0  0  0
 10 44  1  0  0  0  0
 10 45  1  0  0  0  0
 11 46  1  0  0  0  0
 11 47  1  0  0  0  0
 11 48  1  0  0  0  0
 12 49  1  0  0  0  0
 12 50  1  0  0  0  0
 12 51  1  0  0  0  0
 13 52  1  0  0  0  0
 13 53  1  0  0  0  0
 13 54  1  0  0  0  0
 14 55  1  0  0  0  0
 14 56  1  0  0  0  0
 14 57  1  0  0  0  0
 15 16  1  0  0  0  0
 15 58  1  0  0  0  0
 15 59  1  0  0  0  0
 16 17  1  0  0  0  0
 16 60  1  0  0  0  0
 16 61  1  0  0  0  0
 17 18  1  0  0  0  0
 17 62  1  0  0  0  0
 17 63  1  0  0  0  0
 18 19  1  0  0  0  0
 18 64  1  0  0  0  0
 18 65  1  0  0  0  0
 19 20  2  0  0  0  0
 19 23  1  0  0  0  0
 20 22  1  0  0  0  0
 20 66  1  0  0  0  0
 21 22  1  0  0  0  0
 21 24  2  0  0  0  0
 21 25  1  0  0  0  0
 22 28  2  0  0  0  0
 23 25  2  0  0  0  0
 23 67  1  0  0  0  0
 24 26  1  0  0  0  0
 24 27  1  0  0  0  0
 25 68  1  0  0  0  0
 26 29  1  0  0  0  0
 26 31  2  0  0  0  0
 27 30  2  0  0  0  0
 28 30  1  0  0  0  0
 28 69  1  0  0  0  0
 29 32  1  0  0  0  0
 29 34  2  0  0  0  0
 31 33  1  0  0  0  0
 32 35  1  0  0  0  0
 32 36  2  0  0  0  0
 33 35  2  0  0  0  0
 34 37  1  0  0  0  0
 34 70  1  0  0  0  0
 35 71  1  0  0  0  0
 36 38  1  0  0  0  0
 36 72  1  0  0  0  0
 37 38  2  0  0  0  0
 37 73  1  0  0  0  0
 38 74  1  0  0  0  0
 39 75  1  0  0  0  0
 39 76  1  0  0  0  0
 40 77  1  0  0  0  0
 40 78  1  0  0  0  0
 41 79  1  0  0  0  0
 41 80  1  0  0  0  0
 41 81  1  0  0  0  0
 42 82  1  0  0  0  0
 42 83  1  0  0  0  0
 42 84  1  0  0  0  0
M  END
> <PUBCHEM_COMPOUND_CID>
102005470

> <PUBCHEM_CONFORMER_RMSD>
1.2

> <PUBCHEM_CONFORMER_DIVERSEORDER>
1
2
55
26
20
61
42
34
17
63
13
5
25
37
54
16
31
23
8
10
12
50
11
21
60
62
48
47
18
51
53
32
30
56
65
67
29
22
49
40
27
28
14
46
66
43
38
35
59
7
64
4
41
33
6
36
44
52
39
19
3
45
15
9
58
57
24

> <PUBCHEM_MMFF94_PARTIAL_CHARGES>
40
1 -0.11
13 -0.08
14 -0.08
15 0.28
18 0.14
19 -0.14
2 -0.11
20 -0.15
23 -0.15
25 -0.15
27 0.08
28 -0.15
3 0.54
30 0.11
31 0.08
33 0.11
34 -0.15
35 -0.15
36 -0.15
37 -0.15
38 -0.15
39 0.56
4 -0.58
40 0.56
41 0.28
42 0.28
5 -0.36
6 -0.36
66 0.15
67 0.15
68 0.15
69 0.15
7 -0.56
70 0.15
71 0.15
72 0.15
73 0.15
74 0.15
8 -0.56
9 -0.08

> <PUBCHEM_EFFECTIVE_ROTOR_COUNT>
14

> <PUBCHEM_PHARMACOPHORE_FEATURES>
11
1 1 hydrophobe
1 2 hydrophobe
1 5 acceptor
1 6 acceptor
1 7 acceptor
1 8 acceptor
4 9 10 11 12 hydrophobe
6 19 20 21 22 23 25 rings
6 21 22 24 27 28 30 rings
6 26 29 31 32 33 35 rings
6 29 32 34 36 37 38 rings

> <PUBCHEM_HEAVY_ATOM_COUNT>
42

> <PUBCHEM_ATOM_DEF_STEREO_COUNT>
0

> <PUBCHEM_ATOM_UDEF_STEREO_COUNT>
0

> <PUBCHEM_BOND_DEF_STEREO_COUNT>
0

> <PUBCHEM_BOND_UDEF_STEREO_COUNT>
0

> <PUBCHEM_ISOTOPIC_ATOM_COUNT>
0

> <PUBCHEM_COMPONENT_COUNT>
1

> <PUBCHEM_CACTVS_TAUTO_COUNT>
188

> <PUBCHEM_CONFORMER_ID>
06147ADE00000001

> <PUBCHEM_MMFF94_ENERGY>
143.9564

> <PUBCHEM_FEATURE_SELFOVERLAP>
55.95

> <PUBCHEM_SHAPE_FINGERPRINT>
10677351 27 18189072957965333926
11578080 2 14763795281928162275
11621639 179 16735768075799346501
12728209 76 16226333741535939516
131258 43 18129367362472070210
13560911 23 17989490706619088728
13782708 43 16950572124818884048
13811026 1 17894908546731917678
15131766 46 16959044021215962621
15183329 4 18259983787029139770
15274700 242 18343028757718938353
18470217 77 16988555797234653225
21987483 16 16985445433858664142
32027 91 18335414725237557636
3504750 166 18198904708994045692
397830 11 14045750360785746284
484985 159 18125452045253931919

> <PUBCHEM_SHAPE_MULTIPOLES>
865.09
21.96
4.61
3.15
55.4
0.7
0.54
12.13
1.68
-1.01
-1.66
-6.31
-0.65
-3.62

> <PUBCHEM_SHAPE_SELFOVERLAP>
1796.543

> <PUBCHEM_SHAPE_VOLUME>
503.4

> <PUBCHEM_COORDINATE_TYPE>
2
5
10

$$$$
