10214811
  -OEChem-03052615003D

 33 35  0     0  0  0  0  0  0999 V2000
   -1.9324    2.1953    0.0986 S   0  0  0  0  0  0  0  0  0  0  0  0
   -0.2759   -2.1156    0.2612 O   0  0  0  0  0  0  0  0  0  0  0  0
    3.9027   -1.8996   -0.0005 N   0  0  0  0  0  0  0  0  0  0  0  0
   -0.1837    0.2138    0.0921 N   0  0  0  0  0  0  0  0  0  0  0  0
    2.4576    1.3165   -0.1042 N   0  0  0  0  0  0  0  0  0  0  0  0
   -2.5548   -0.2511    0.3194 N   0  0  0  0  0  0  0  0  0  0  0  0
   -3.5689    1.8824    0.2557 N   0  0  0  0  0  0  0  0  0  0  0  0
    1.8249   -1.1037    0.0620 C   0  0  0  0  0  0  0  0  0  0  0  0
    2.7230   -0.0135   -0.0443 C   0  0  0  0  0  0  0  0  0  0  0  0
    4.0156   -0.5331   -0.0817 C   0  0  0  0  0  0  0  0  0  0  0  0
   -5.0083   -0.0560    0.5096 C   0  0  0  0  0  0  0  0  0  0  0  0
   -5.6738   -0.4075   -0.8352 C   0  0  0  0  0  0  0  0  0  0  0  0
    2.5809   -2.2547    0.0870 C   0  0  0  0  0  0  0  0  0  0  0  0
   -3.6780    0.5576    0.3561 C   0  0  0  0  0  0  0  0  0  0  0  0
    0.3924   -1.0706    0.1337 C   0  0  0  0  0  0  0  0  0  0  0  0
    5.1279    0.3008   -0.1849 C   0  0  0  0  0  0  0  0  0  0  0  0
   -7.0286   -1.0735   -0.6548 C   0  0  0  0  0  0  0  0  0  0  0  0
   -1.5411    0.5417    0.1810 C   0  0  0  0  0  0  0  0  0  0  0  0
    4.8686    1.6663   -0.2471 C   0  0  0  0  0  0  0  0  0  0  0  0
    3.5521    2.1046   -0.2039 C   0  0  0  0  0  0  0  0  0  0  0  0
   -4.9146   -0.9686    1.1118 H   0  0  0  0  0  0  0  0  0  0  0  0
   -5.6679    0.6150    1.0748 H   0  0  0  0  0  0  0  0  0  0  0  0
   -5.7967    0.5024   -1.4353 H   0  0  0  0  0  0  0  0  0  0  0  0
   -5.0187   -1.0762   -1.4071 H   0  0  0  0  0  0  0  0  0  0  0  0
    2.3032   -3.2975    0.1588 H   0  0  0  0  0  0  0  0  0  0  0  0
    4.6780   -2.5480   -0.0044 H   0  0  0  0  0  0  0  0  0  0  0  0
    6.1384   -0.0893   -0.2151 H   0  0  0  0  0  0  0  0  0  0  0  0
   -6.9335   -2.0069   -0.0911 H   0  0  0  0  0  0  0  0  0  0  0  0
   -7.7188   -0.4158   -0.1171 H   0  0  0  0  0  0  0  0  0  0  0  0
   -7.4697   -1.3072   -1.6287 H   0  0  0  0  0  0  0  0  0  0  0  0
    0.4215    1.0237   -0.0091 H   0  0  0  0  0  0  0  0  0  0  0  0
    5.6840    2.3775   -0.3282 H   0  0  0  0  0  0  0  0  0  0  0  0
    3.3355    3.1684   -0.2516 H   0  0  0  0  0  0  0  0  0  0  0  0
  1  7  1  0  0  0  0
  1 18  1  0  0  0  0
  2 15  2  0  0  0  0
  3 10  1  0  0  0  0
  3 13  1  0  0  0  0
  3 26  1  0  0  0  0
  4 15  1  0  0  0  0
  4 18  1  0  0  0  0
  4 31  1  0  0  0  0
  5  9  1  0  0  0  0
  5 20  2  0  0  0  0
  6 14  1  0  0  0  0
  6 18  2  0  0  0  0
  7 14  2  0  0  0  0
  8  9  1  0  0  0  0
  8 13  2  0  0  0  0
  8 15  1  0  0  0  0
  9 10  2  0  0  0  0
 10 16  1  0  0  0  0
 11 12  1  0  0  0  0
 11 14  1  0  0  0  0
 11 21  1  0  0  0  0
 11 22  1  0  0  0  0
 12 17  1  0  0  0  0
 12 23  1  0  0  0  0
 12 24  1  0  0  0  0
 13 25  1  0  0  0  0
 16 19  2  0  0  0  0
 16 27  1  0  0  0  0
 17 28  1  0  0  0  0
 17 29  1  0  0  0  0
 17 30  1  0  0  0  0
 19 20  1  0  0  0  0
 19 32  1  0  0  0  0
 20 33  1  0  0  0  0
M  END
> <PUBCHEM_COMPOUND_CID>
10214811

> <PUBCHEM_CONFORMER_RMSD>
0.8

> <PUBCHEM_CONFORMER_DIVERSEORDER>
1
14
4
13
24
20
25
18
16
21
15
10
19
26
12
8
9
17
5
11
6
7
3
2
22
23

> <PUBCHEM_MMFF94_PARTIAL_CHARGES>
24
1 0.18
10 -0.15
11 0.18
13 -0.3
14 0.34
15 0.72
16 -0.15
18 0.44
19 -0.15
2 -0.57
20 0.16
25 0.15
26 0.27
27 0.15
3 0.03
31 0.37
32 0.15
33 0.15
4 -0.49
5 -0.57
6 -0.57
7 -0.51
8 -0.09
9 0.26

> <PUBCHEM_EFFECTIVE_ROTOR_COUNT>
5

> <PUBCHEM_PHARMACOPHORE_FEATURES>
10
1 17 hydrophobe
1 2 acceptor
1 3 cation
1 3 donor
1 4 donor
1 5 acceptor
3 6 7 14 cation
5 1 6 7 14 18 rings
5 3 8 9 10 13 rings
6 5 9 10 16 19 20 rings

> <PUBCHEM_HEAVY_ATOM_COUNT>
20

> <PUBCHEM_ATOM_DEF_STEREO_COUNT>
0

> <PUBCHEM_ATOM_UDEF_STEREO_COUNT>
0

> <PUBCHEM_BOND_DEF_STEREO_COUNT>
0

> <PUBCHEM_BOND_UDEF_STEREO_COUNT>
0

> <PUBCHEM_ISOTOPIC_ATOM_COUNT>
0

> <PUBCHEM_COMPONENT_COUNT>
1

> <PUBCHEM_CACTVS_TAUTO_COUNT>
15

> <PUBCHEM_CONFORMER_ID>
009BDD9B00000001

> <PUBCHEM_MMFF94_ENERGY>
25.856

> <PUBCHEM_FEATURE_SELFOVERLAP>
50.857

> <PUBCHEM_SHAPE_FINGERPRINT>
10090160 65 18333730230209965187
10366900 7 17677062243564435298
10411042 1 18049159970134714202
10595046 47 18413671292670385561
10912923 1 18130510747538726779
11578080 2 16556761217571717906
12107183 9 17620198633075261369
12236239 1 18060139830039006253
12403259 118 18267857294309428681
12403260 363 18337106744281993402
12916754 54 18268713818457728433
13167823 11 18342455903006429839
13422730 153 18266727151486568693
13533116 47 18411699880773901963
14123256 10 18342175596366110821
14251764 18 18261110769251812792
14528608 73 18411702088640371325
14787075 74 18413671322745472427
15196674 1 18338238163153583673
17492 89 18198625419380228679
17834072 33 18342173371562521535
17844677 252 18269282270137583857
19489759 90 15647049361725550829
200 152 18413103945002613069
20028762 73 18270957947212877838
20157964 124 18334857229433263295
20645477 70 18340770343096551862
21267235 1 18340495486400563670
21652331 79 18409731759292385300
21709351 56 18266736883460324823
221357 26 18342461426360882644
23402539 116 18410571748233093341
23522609 53 17844272751187653185
23559900 14 18334016124454705705
335352 9 18409453596948477886
34797466 226 16773521069716268816
351380 180 18335140864667650232
3545911 37 18408608075867936932
4072396 5 13551183390365294835
4214541 1 18338238141947733577
42630746 31 18411419518710731198
4325135 7 18343300379539284711
474 4 18040722506295542660
474229 33 18411420626712365515
5104073 3 18336270024613147737
5283173 99 17968647217356709917
5312625 73 18341330071776787993
59755656 215 18334861614958811142
6327066 14 17974010849804695732
7495541 125 17632850941093722763
77779 3 18339083679084335281
9709674 26 18266188244538932739

> <PUBCHEM_SHAPE_MULTIPOLES>
384.67
14.19
2.34
0.7
15.72
0.15
0.04
-0.47
2.59
-1.53
-0.04
0.44
-0.01
-0.72

> <PUBCHEM_SHAPE_SELFOVERLAP>
822.448

> <PUBCHEM_SHAPE_VOLUME>
216.7

> <PUBCHEM_COORDINATE_TYPE>
2
5
10

$$$$
