102141527
  -OEChem-03052615023D

 49 50  0     1  0  0  0  0  0999 V2000
    0.7870   -0.8156   -0.6351 O   0  0  0  0  0  0  0  0  0  0  0  0
    0.5330   -1.4469    1.5949 O   0  0  0  0  0  0  0  0  0  0  0  0
    3.2042    2.2483   -0.7117 N   0  0  0  0  0  0  0  0  0  0  0  0
    3.0982    1.9091    2.7021 N   0  0  0  0  0  0  0  0  0  0  0  0
   -5.5119    0.3282   -0.2399 C   0  0  0  0  0  0  0  0  0  0  0  0
   -4.0309   -0.0304   -0.0343 C   0  0  0  0  0  0  0  0  0  0  0  0
   -6.1201    0.8088    1.0956 C   0  0  0  0  0  0  0  0  0  0  0  0
   -5.7456    1.4496   -1.2774 C   0  0  0  0  0  0  0  0  0  0  0  0
   -6.2844   -0.9153   -0.7311 C   0  0  0  0  0  0  0  0  0  0  0  0
   -3.0437    0.6413   -0.7553 C   0  0  0  0  0  0  0  0  0  0  0  0
   -3.6748   -1.0277    0.8737 C   0  0  0  0  0  0  0  0  0  0  0  0
   -1.3441   -0.6816    0.3394 C   0  0  0  0  0  0  0  0  0  0  0  0
   -1.7004    0.3158   -0.5684 C   0  0  0  0  0  0  0  0  0  0  0  0
   -2.3314   -1.3533    1.0605 C   0  0  0  0  0  0  0  0  0  0  0  0
    2.6204    1.2379    0.1898 C   0  0  1  0  0  0  0  0  0  0  0  0
    3.0654   -0.1523   -0.1242 C   0  0  0  0  0  0  0  0  0  0  0  0
    2.1455   -1.1226   -0.5214 C   0  0  0  0  0  0  0  0  0  0  0  0
    0.0566   -1.0212    0.5332 C   0  0  0  0  0  0  0  0  0  0  0  0
    4.4180   -0.4759   -0.0167 C   0  0  0  0  0  0  0  0  0  0  0  0
    2.5782   -2.4167   -0.8110 C   0  0  0  0  0  0  0  0  0  0  0  0
    3.0024    1.8538   -2.1009 C   0  0  0  0  0  0  0  0  0  0  0  0
    2.6101    3.5539   -0.4494 C   0  0  0  0  0  0  0  0  0  0  0  0
    4.8506   -1.7701   -0.3062 C   0  0  0  0  0  0  0  0  0  0  0  0
    3.9308   -2.7404   -0.7034 C   0  0  0  0  0  0  0  0  0  0  0  0
    2.8870    1.6234    1.5971 C   0  0  0  0  0  0  0  0  0  0  0  0
   -5.5744    1.6748    1.4887 H   0  0  0  0  0  0  0  0  0  0  0  0
   -6.0987    0.0296    1.8654 H   0  0  0  0  0  0  0  0  0  0  0  0
   -7.1682    1.1045    0.9689 H   0  0  0  0  0  0  0  0  0  0  0  0
   -5.3773    1.1687   -2.2711 H   0  0  0  0  0  0  0  0  0  0  0  0
   -5.2627    2.3877   -0.9795 H   0  0  0  0  0  0  0  0  0  0  0  0
   -6.8157    1.6653   -1.3860 H   0  0  0  0  0  0  0  0  0  0  0  0
   -7.3379   -0.6773   -0.9194 H   0  0  0  0  0  0  0  0  0  0  0  0
   -6.2668   -1.7305    0.0006 H   0  0  0  0  0  0  0  0  0  0  0  0
   -5.8578   -1.3016   -1.6644 H   0  0  0  0  0  0  0  0  0  0  0  0
   -3.2648    1.4257   -1.4703 H   0  0  0  0  0  0  0  0  0  0  0  0
   -4.4232   -1.5664    1.4474 H   0  0  0  0  0  0  0  0  0  0  0  0
   -0.9523    0.8652   -1.1341 H   0  0  0  0  0  0  0  0  0  0  0  0
   -2.0709   -2.1349    1.7695 H   0  0  0  0  0  0  0  0  0  0  0  0
    1.5303    1.3000    0.0771 H   0  0  0  0  0  0  0  0  0  0  0  0
    5.1514    0.2658    0.2892 H   0  0  0  0  0  0  0  0  0  0  0  0
    1.8668   -3.1770   -1.1216 H   0  0  0  0  0  0  0  0  0  0  0  0
    3.5857    0.9703   -2.3794 H   0  0  0  0  0  0  0  0  0  0  0  0
    3.3558    2.6457   -2.7729 H   0  0  0  0  0  0  0  0  0  0  0  0
    1.9468    1.6724   -2.3367 H   0  0  0  0  0  0  0  0  0  0  0  0
    2.8629    3.9383    0.5442 H   0  0  0  0  0  0  0  0  0  0  0  0
    1.5187    3.5491   -0.5571 H   0  0  0  0  0  0  0  0  0  0  0  0
    3.0065    4.2970   -1.1520 H   0  0  0  0  0  0  0  0  0  0  0  0
    5.9037   -2.0221   -0.2229 H   0  0  0  0  0  0  0  0  0  0  0  0
    4.2677   -3.7480   -0.9290 H   0  0  0  0  0  0  0  0  0  0  0  0
  1 17  1  0  0  0  0
  1 18  1  0  0  0  0
  2 18  2  0  0  0  0
  3 15  1  0  0  0  0
  3 21  1  0  0  0  0
  3 22  1  0  0  0  0
  4 25  3  0  0  0  0
  5  6  1  0  0  0  0
  5  7  1  0  0  0  0
  5  8  1  0  0  0  0
  5  9  1  0  0  0  0
  6 10  2  0  0  0  0
  6 11  1  0  0  0  0
  7 26  1  0  0  0  0
  7 27  1  0  0  0  0
  7 28  1  0  0  0  0
  8 29  1  0  0  0  0
  8 30  1  0  0  0  0
  8 31  1  0  0  0  0
  9 32  1  0  0  0  0
  9 33  1  0  0  0  0
  9 34  1  0  0  0  0
 10 13  1  0  0  0  0
 10 35  1  0  0  0  0
 11 14  2  0  0  0  0
 11 36  1  0  0  0  0
 12 13  2  0  0  0  0
 12 14  1  0  0  0  0
 12 18  1  0  0  0  0
 13 37  1  0  0  0  0
 14 38  1  0  0  0  0
 15 16  1  0  0  0  0
 15 25  1  0  0  0  0
 15 39  1  0  0  0  0
 16 17  1  0  0  0  0
 16 19  2  0  0  0  0
 17 20  2  0  0  0  0
 19 23  1  0  0  0  0
 19 40  1  0  0  0  0
 20 24  1  0  0  0  0
 20 41  1  0  0  0  0
 21 42  1  0  0  0  0
 21 43  1  0  0  0  0
 21 44  1  0  0  0  0
 22 45  1  0  0  0  0
 22 46  1  0  0  0  0
 22 47  1  0  0  0  0
 23 24  2  0  0  0  0
 23 48  1  0  0  0  0
 24 49  1  0  0  0  0
M  END
> <PUBCHEM_COMPOUND_CID>
102141527

> <PUBCHEM_CONFORMER_RMSD>
0.8

> <PUBCHEM_CONFORMER_DIVERSEORDER>
1
199
269
126
317
252
154
48
213
216
54
128
207
204
310
241
125
167
228
285
339
319
195
85
217
139
295
88
72
122
12
235
116
329
192
218
251
256
68
150
120
73
152
245
27
144
341
165
42
282
208
335
66
143
3
82
141
266
19
46
243
327
121
200
336
287
247
58
33
321
284
145
127
26
138
31
279
315
313
337
81
78
314
148
38
214
343
181
149
61
147
263
189
44
98
172
183
4
291
162
62
146
36
345
265
43
18
322
286
206
178
220
13
140
115
288
211
23
296
29
20
110
226
39
196
175
41
51
174
215
332
151
136
180
28
326
248
153
164
106
100
93
307
52
219
6
168
338
259
69
237
80
84
102
7
323
240
232
111
179
289
109
324
221
11
311
249
130
49
113
275
264
37
230
177
224
246
223
56
268
91
94
124
70
312
277
212
97
306
309
290
325
34
74
104
118
203
185
292
65
236
47
158
209
99
142
244
260
22
134
71
346
194
304
316
294
201
328
222
182
24
117
103
184
119
89
234
108
90
231
344
169
173
281
21
280
257
87
270
302
57
340
60
278
16
32
271
229
318
308
77
272
105
86
2
159
131
274
242
299
83
276
161
298
67
227
210
95
76
155
10
301
233
267
283
133
35
205
176
25
333
45
123
5
101
253
114
334
255
303
160
331
254
132
17
273
171
320
187
8
50
79
225
55
40
258
64
135
188
14
238
193
186
107
156
170
198
112
163
342
96
305
63
157
250
197
92
166
15
293
9
190
59
262
297
261
239
30
330
300
75
53
137
191
202
129

> <PUBCHEM_MMFF94_PARTIAL_CHARGES>
30
1 -0.23
10 -0.15
11 -0.15
12 0.09
13 -0.15
14 -0.15
15 0.61
16 -0.14
17 0.08
18 0.63
19 -0.15
2 -0.57
20 -0.15
21 0.27
22 0.27
23 -0.15
24 -0.15
25 0.36
3 -0.81
35 0.15
36 0.15
37 0.15
38 0.15
4 -0.56
40 0.15
41 0.15
48 0.15
49 0.15
5 0.14
6 -0.14

> <PUBCHEM_EFFECTIVE_ROTOR_COUNT>
6

> <PUBCHEM_PHARMACOPHORE_FEATURES>
6
1 2 acceptor
1 3 cation
1 4 acceptor
4 5 7 8 9 hydrophobe
6 16 17 19 20 23 24 rings
6 6 10 11 12 13 14 rings

> <PUBCHEM_HEAVY_ATOM_COUNT>
25

> <PUBCHEM_ATOM_DEF_STEREO_COUNT>
0

> <PUBCHEM_ATOM_UDEF_STEREO_COUNT>
1

> <PUBCHEM_BOND_DEF_STEREO_COUNT>
0

> <PUBCHEM_BOND_UDEF_STEREO_COUNT>
0

> <PUBCHEM_ISOTOPIC_ATOM_COUNT>
0

> <PUBCHEM_COMPONENT_COUNT>
1

> <PUBCHEM_CACTVS_TAUTO_COUNT>
1

> <PUBCHEM_CONFORMER_ID>
06168E5700000001

> <PUBCHEM_MMFF94_ENERGY>
90.5799

> <PUBCHEM_FEATURE_SELFOVERLAP>
30.446

> <PUBCHEM_SHAPE_FINGERPRINT>
10763959 59 18187081707314541573
10937287 8 17689160432077858052
11089746 13 18113331995035940103
11405975 8 18408046216836637915
11545043 162 17603882108310691611
11595378 159 15213291981391399509
12166972 35 18201442437221746824
12236239 1 16702299023127330399
12403259 415 17676205754276832461
12616971 3 17418091010373926023
12633257 1 17749934678560636856
13134695 92 18059571352768552250
13150687 139 13253943737075945224
13533116 47 18273216395972462283
13583140 156 17987517176950059619
13965767 371 17826779624121271652
14170010 4 18342454833875921778
17844677 252 18339648850242606997
21033648 29 18187355503058525093
21033650 10 15697183779804630699
21133410 230 11835509573900391629
21315763 129 18335700520913879621
21421861 104 10737273645847388326
21792961 116 18043264453110816798
221357 26 18335984160026638829
22149856 69 18341905142982870715
22289505 5 18408887300440020942
23559900 14 18408042900863396323
4015057 19 18410854391488426785
44317340 157 18342455950836418047
46194498 28 18335707122041321582
474 4 18336547213064582209
495365 180 18272647995668664706
508706 21 17823406107672516781
5104073 3 18114189678534994113
5281201 14 18409169874664654261
53794403 172 17750527332592462293
6086070 43 17897144863362353349
633830 44 17895190051715363811
6823239 73 17967819340286345916
7471813 234 17489305235753591602
7495541 125 17846775226387429267

> <PUBCHEM_SHAPE_MULTIPOLES>
492.79
13.77
2.91
1.58
19.74
1.31
-0.57
0.44
1.78
-4.66
0.42
-0.76
0.8
1.14

> <PUBCHEM_SHAPE_SELFOVERLAP>
1040.55

> <PUBCHEM_SHAPE_VOLUME>
275.3

> <PUBCHEM_COORDINATE_TYPE>
2
5
10

$$$$
