102142270
  -OEChem-03052615013D

 21 22  0     0  0  0  0  0  0999 V2000
    1.1117    0.7950   -0.0003 S   0  0  0  0  0  0  0  0  0  0  0  0
   -4.1126    2.3001   -0.0001 O   0  0  0  0  0  0  0  0  0  0  0  0
    4.9236    0.1698    0.0009 O   0  5  0  0  0  0  0  0  0  0  0  0
    3.7333    2.0143    0.0001 O   0  0  0  0  0  0  0  0  0  0  0  0
   -1.9075    0.4291   -0.0009 N   0  0  0  0  0  0  0  0  0  0  0  0
    3.8027    0.7528    0.0004 N   0  3  0  0  0  0  0  0  0  0  0  0
   -1.1531   -0.7151   -0.0001 C   0  0  0  0  0  0  0  0  0  0  0  0
    0.2621   -0.6916   -0.0006 C   0  0  0  0  0  0  0  0  0  0  0  0
   -2.0153   -1.7891    0.0006 C   0  0  0  0  0  0  0  0  0  0  0  0
   -3.2382    0.1016    0.0001 C   0  0  0  0  0  0  0  0  0  0  0  0
    1.1141   -1.7740   -0.0007 C   0  0  0  0  0  0  0  0  0  0  0  0
   -3.3346   -1.2724    0.0009 C   0  0  0  0  0  0  0  0  0  0  0  0
    2.6244   -0.0074   -0.0003 C   0  0  0  0  0  0  0  0  0  0  0  0
    2.4826   -1.3778   -0.0003 C   0  0  0  0  0  0  0  0  0  0  0  0
   -4.2932    1.0648    0.0003 C   0  0  0  0  0  0  0  0  0  0  0  0
   -1.5409    1.3716   -0.0017 H   0  0  0  0  0  0  0  0  0  0  0  0
   -1.7399   -2.8351    0.0011 H   0  0  0  0  0  0  0  0  0  0  0  0
    0.7899   -2.8074   -0.0007 H   0  0  0  0  0  0  0  0  0  0  0  0
   -4.2522   -1.8448    0.0016 H   0  0  0  0  0  0  0  0  0  0  0  0
    3.3125   -2.0736   -0.0001 H   0  0  0  0  0  0  0  0  0  0  0  0
   -5.3232    0.6689    0.0008 H   0  0  0  0  0  0  0  0  0  0  0  0
  1  8  1  0  0  0  0
  1 13  1  0  0  0  0
  2 15  2  0  0  0  0
  3  6  1  0  0  0  0
  4  6  2  0  0  0  0
  5  7  1  0  0  0  0
  5 10  1  0  0  0  0
  5 16  1  0  0  0  0
  6 13  1  0  0  0  0
  7  8  1  0  0  0  0
  7  9  2  0  0  0  0
  8 11  2  0  0  0  0
  9 12  1  0  0  0  0
  9 17  1  0  0  0  0
 10 12  2  0  0  0  0
 10 15  1  0  0  0  0
 11 14  1  0  0  0  0
 11 18  1  0  0  0  0
 12 19  1  0  0  0  0
 13 14  2  0  0  0  0
 14 20  1  0  0  0  0
 15 21  1  0  0  0  0
M  CHG  2   3  -1   6   1
M  END
> <PUBCHEM_COMPOUND_CID>
102142270

> <PUBCHEM_CONFORMER_RMSD>
0.6

> <PUBCHEM_CONFORMER_DIVERSEORDER>
1
3
4
5
6
2

> <PUBCHEM_MMFF94_PARTIAL_CHARGES>
21
1 -0.08
10 -0.24
11 -0.15
12 -0.15
13 0.12
14 -0.15
15 0.59
16 0.27
17 0.15
18 0.15
19 0.15
2 -0.57
20 0.15
21 0.06
3 -0.52
4 -0.52
5 0.03
6 0.96
7 -0.15
8 0.04
9 -0.15

> <PUBCHEM_EFFECTIVE_ROTOR_COUNT>
3

> <PUBCHEM_PHARMACOPHORE_FEATURES>
8
1 2 acceptor
1 3 acceptor
1 3 anion
1 4 acceptor
1 5 cation
1 5 donor
5 1 8 11 13 14 rings
5 5 7 9 10 12 rings

> <PUBCHEM_HEAVY_ATOM_COUNT>
15

> <PUBCHEM_ATOM_DEF_STEREO_COUNT>
0

> <PUBCHEM_ATOM_UDEF_STEREO_COUNT>
0

> <PUBCHEM_BOND_DEF_STEREO_COUNT>
0

> <PUBCHEM_BOND_UDEF_STEREO_COUNT>
0

> <PUBCHEM_ISOTOPIC_ATOM_COUNT>
0

> <PUBCHEM_COMPONENT_COUNT>
1

> <PUBCHEM_CACTVS_TAUTO_COUNT>
5

> <PUBCHEM_CONFORMER_ID>
0616913E00000001

> <PUBCHEM_MMFF94_ENERGY>
18.1473

> <PUBCHEM_FEATURE_SELFOVERLAP>
40.677

> <PUBCHEM_SHAPE_FINGERPRINT>
10014705 185 18333726914827496309
10608611 8 18411135840115065297
11471102 20 18340202999206742974
11543360 7 15626213654395610609
122479 349 18335424560395731923
12346645 44 18408321111638451787
12500047 106 18341888602087626755
13214271 11 18335420192582874943
14123255 52 18410855451707181687
14252887 29 12901541317792500272
14325111 11 18410575106159280738
14415576 193 18410577309841253820
14897335 6 18411417297954286719
15196674 1 18410855468760352870
15239154 128 18410295813031231221
15442244 35 18195245503514182546
15536298 74 18341614789443439494
15775835 57 18410294705050871211
1741750 31 18341898467838359467
17834072 32 18194683670827738717
18186145 218 18130803273313334762
20510252 161 18341900697216692619
20645477 56 18335704923287012797
20645477 70 17417821582290383902
21267235 1 18410301340691291791
22646028 28 9295286140520300209
23402539 116 18273207621528337084
23402655 69 18272650125587341109
23557571 272 18272379706014855471
23559900 14 18272089336636037494
2916195 48 17987225815580989960
3545911 37 18411422799817734475
4214541 1 18410575084715839427
449060 50 18410016524614685519
474 4 17822016440395194588
4990 188 18059867177088749798
5104073 3 18407760322164331555
633830 44 18335137631137733118
6430166 295 18411134736366583480
7364860 26 18339924788680055462
77779 3 18410576197175938950
9709674 26 18411987970106477727

> <PUBCHEM_SHAPE_MULTIPOLES>
284.97
8.84
2.03
0.59
1.6
0.34
0
4.35
0
-0.69
0
-0.04
-0.03
0

> <PUBCHEM_SHAPE_SELFOVERLAP>
606.559

> <PUBCHEM_SHAPE_VOLUME>
160.1

> <PUBCHEM_COORDINATE_TYPE>
2
5
10

$$$$
