102146824
  -OEChem-03052615023D

 59 63  0     1  0  0  0  0  0999 V2000
    1.2568   -0.7369   -0.5459 O   0  0  0  0  0  0  0  0  0  0  0  0
    3.0828    1.0650   -0.7342 O   0  0  0  0  0  0  0  0  0  0  0  0
    2.1854   -4.4403    0.8424 O   0  0  0  0  0  0  0  0  0  0  0  0
   -0.4896    1.0446   -1.0250 O   0  0  0  0  0  0  0  0  0  0  0  0
   -4.4179   -2.0619    0.8296 O   0  0  0  0  0  0  0  0  0  0  0  0
   -2.1299    2.9347   -1.5656 O   0  0  0  0  0  0  0  0  0  0  0  0
    3.5509   -0.2429   -1.0859 C   0  0  1  0  0  0  0  0  0  0  0  0
    2.5542   -1.2159   -0.5392 C   0  0  0  0  0  0  0  0  0  0  0  0
    3.6393   -0.3057   -2.6252 C   0  0  0  0  0  0  0  0  0  0  0  0
    0.2405   -1.5311   -0.0705 C   0  0  0  0  0  0  0  0  0  0  0  0
    0.4922   -2.8160    0.4218 C   0  0  0  0  0  0  0  0  0  0  0  0
   -1.0765   -1.0314   -0.0838 C   0  0  0  0  0  0  0  0  0  0  0  0
    4.9176   -0.4406   -0.4224 C   0  0  0  0  0  0  0  0  0  0  0  0
   -2.1175   -1.8350    0.3994 C   0  0  0  0  0  0  0  0  0  0  0  0
    2.9094   -2.4275   -0.0923 C   0  0  0  0  0  0  0  0  0  0  0  0
   -0.5483   -3.6114    0.9018 C   0  0  0  0  0  0  0  0  0  0  0  0
    1.8716   -3.3315    0.4319 C   0  0  0  0  0  0  0  0  0  0  0  0
   -1.8514   -3.1203    0.8902 C   0  0  0  0  0  0  0  0  0  0  0  0
    2.3432    0.0018   -3.3641 C   0  0  0  0  0  0  0  0  0  0  0  0
   -1.3873    0.3289   -0.5990 C   0  0  0  0  0  0  0  0  0  0  0  0
   -2.7852    0.8074   -0.5923 C   0  0  0  0  0  0  0  0  0  0  0  0
   -3.5143   -1.3521    0.4047 C   0  0  0  0  0  0  0  0  0  0  0  0
   -3.8111   -0.0029   -0.1083 C   0  0  0  0  0  0  0  0  0  0  0  0
    3.4041    1.3773    0.6101 C   0  0  0  0  0  0  0  0  0  0  0  0
   -0.3575   -4.9922    1.4423 C   0  0  0  0  0  0  0  0  0  0  0  0
   -3.0813    2.0880   -1.0775 C   0  0  0  0  0  0  0  0  0  0  0  0
    2.5099    2.4857    1.0826 C   0  0  0  0  0  0  0  0  0  0  0  0
   -5.1319    0.4634   -0.1082 C   0  0  0  0  0  0  0  0  0  0  0  0
   -4.3978    2.5501   -1.0760 C   0  0  0  0  0  0  0  0  0  0  0  0
   -5.4215    1.7391   -0.5922 C   0  0  0  0  0  0  0  0  0  0  0  0
    2.9009    3.8148    0.9206 C   0  0  0  0  0  0  0  0  0  0  0  0
    1.2875    2.1868    1.6842 C   0  0  0  0  0  0  0  0  0  0  0  0
    2.0695    4.8451    1.3602 C   0  0  0  0  0  0  0  0  0  0  0  0
    0.4561    3.2169    2.1237 C   0  0  0  0  0  0  0  0  0  0  0  0
    0.8471    4.5460    1.9617 C   0  0  0  0  0  0  0  0  0  0  0  0
    4.0036   -1.2908   -2.9426 H   0  0  0  0  0  0  0  0  0  0  0  0
    4.3830    0.4295   -2.9602 H   0  0  0  0  0  0  0  0  0  0  0  0
    5.5804    0.4111   -0.6224 H   0  0  0  0  0  0  0  0  0  0  0  0
    5.4303   -1.3113   -0.8521 H   0  0  0  0  0  0  0  0  0  0  0  0
    4.9032   -0.6039    0.6613 H   0  0  0  0  0  0  0  0  0  0  0  0
    3.9229   -2.8076   -0.1036 H   0  0  0  0  0  0  0  0  0  0  0  0
   -2.6639   -3.7392    1.2641 H   0  0  0  0  0  0  0  0  0  0  0  0
    2.5300    0.0324   -4.4427 H   0  0  0  0  0  0  0  0  0  0  0  0
    1.5861   -0.7677   -3.1880 H   0  0  0  0  0  0  0  0  0  0  0  0
    1.9311    0.9722   -3.0711 H   0  0  0  0  0  0  0  0  0  0  0  0
    4.4414    1.7228    0.6962 H   0  0  0  0  0  0  0  0  0  0  0  0
    3.2544    0.5369    1.2999 H   0  0  0  0  0  0  0  0  0  0  0  0
    0.0492   -5.6589    0.6751 H   0  0  0  0  0  0  0  0  0  0  0  0
    0.2911   -4.9799    2.3242 H   0  0  0  0  0  0  0  0  0  0  0  0
   -1.3049   -5.4395    1.7656 H   0  0  0  0  0  0  0  0  0  0  0  0
   -5.9478   -0.1503    0.2640 H   0  0  0  0  0  0  0  0  0  0  0  0
   -4.6331    3.5427   -1.4510 H   0  0  0  0  0  0  0  0  0  0  0  0
   -6.4460    2.0999   -0.5916 H   0  0  0  0  0  0  0  0  0  0  0  0
    3.8495    4.0611    0.4510 H   0  0  0  0  0  0  0  0  0  0  0  0
    0.9706    1.1561    1.8173 H   0  0  0  0  0  0  0  0  0  0  0  0
   -1.2479    2.5410   -1.4915 H   0  0  0  0  0  0  0  0  0  0  0  0
    2.3735    5.8800    1.2333 H   0  0  0  0  0  0  0  0  0  0  0  0
   -0.4964    2.9838    2.5907 H   0  0  0  0  0  0  0  0  0  0  0  0
    0.1993    5.3480    2.3033 H   0  0  0  0  0  0  0  0  0  0  0  0
  1  8  1  0  0  0  0
  1 10  1  0  0  0  0
  2  7  1  0  0  0  0
  2 24  1  0  0  0  0
  3 17  2  0  0  0  0
  4 20  2  0  0  0  0
  5 22  2  0  0  0  0
  6 26  1  0  0  0  0
  6 56  1  0  0  0  0
  7  8  1  0  0  0  0
  7  9  1  0  0  0  0
  7 13  1  0  0  0  0
  8 15  2  0  0  0  0
  9 19  1  0  0  0  0
  9 36  1  0  0  0  0
  9 37  1  0  0  0  0
 10 11  2  0  0  0  0
 10 12  1  0  0  0  0
 11 16  1  0  0  0  0
 11 17  1  0  0  0  0
 12 14  2  0  0  0  0
 12 20  1  0  0  0  0
 13 38  1  0  0  0  0
 13 39  1  0  0  0  0
 13 40  1  0  0  0  0
 14 18  1  0  0  0  0
 14 22  1  0  0  0  0
 15 17  1  0  0  0  0
 15 41  1  0  0  0  0
 16 18  2  0  0  0  0
 16 25  1  0  0  0  0
 18 42  1  0  0  0  0
 19 43  1  0  0  0  0
 19 44  1  0  0  0  0
 19 45  1  0  0  0  0
 20 21  1  0  0  0  0
 21 23  2  0  0  0  0
 21 26  1  0  0  0  0
 22 23  1  0  0  0  0
 23 28  1  0  0  0  0
 24 27  1  0  0  0  0
 24 46  1  0  0  0  0
 24 47  1  0  0  0  0
 25 48  1  0  0  0  0
 25 49  1  0  0  0  0
 25 50  1  0  0  0  0
 26 29  2  0  0  0  0
 27 31  2  0  0  0  0
 27 32  1  0  0  0  0
 28 30  2  0  0  0  0
 28 51  1  0  0  0  0
 29 30  1  0  0  0  0
 29 52  1  0  0  0  0
 30 53  1  0  0  0  0
 31 33  1  0  0  0  0
 31 54  1  0  0  0  0
 32 34  2  0  0  0  0
 32 55  1  0  0  0  0
 33 35  2  0  0  0  0
 33 57  1  0  0  0  0
 34 35  1  0  0  0  0
 34 58  1  0  0  0  0
 35 59  1  0  0  0  0
M  END
> <PUBCHEM_COMPOUND_CID>
102146824

> <PUBCHEM_CONFORMER_RMSD>
0.8

> <PUBCHEM_CONFORMER_DIVERSEORDER>
4
1
19
7
14
22
8
12
27
10
23
15
18
16
13
11
2
28
17
21
3
5
25
9
6
24
20
26

> <PUBCHEM_MMFF94_PARTIAL_CHARGES>
43
1 -0.16
10 0.08
11 0.09
12 0.09
14 0.09
15 -0.14
16 -0.14
17 0.47
18 -0.15
2 -0.56
20 0.4
21 0.09
22 0.4
23 0.09
24 0.42
25 0.14
26 0.08
27 -0.14
28 -0.15
29 -0.15
3 -0.57
30 -0.15
31 -0.15
32 -0.15
33 -0.15
34 -0.15
35 -0.15
4 -0.57
41 0.15
42 0.15
5 -0.57
51 0.15
52 0.15
53 0.15
54 0.15
55 0.15
56 0.45
57 0.15
58 0.15
59 0.15
6 -0.53
7 0.42
8 -0.06

> <PUBCHEM_EFFECTIVE_ROTOR_COUNT>
5

> <PUBCHEM_PHARMACOPHORE_FEATURES>
12
1 1 acceptor
1 19 hydrophobe
1 2 acceptor
1 3 acceptor
1 4 acceptor
1 5 acceptor
1 6 donor
6 1 8 10 11 15 17 rings
6 10 11 12 14 16 18 rings
6 12 14 20 21 22 23 rings
6 21 23 26 28 29 30 rings
6 27 31 32 33 34 35 rings

> <PUBCHEM_HEAVY_ATOM_COUNT>
35

> <PUBCHEM_ATOM_DEF_STEREO_COUNT>
1

> <PUBCHEM_ATOM_UDEF_STEREO_COUNT>
0

> <PUBCHEM_BOND_DEF_STEREO_COUNT>
0

> <PUBCHEM_BOND_UDEF_STEREO_COUNT>
0

> <PUBCHEM_ISOTOPIC_ATOM_COUNT>
0

> <PUBCHEM_COMPONENT_COUNT>
1

> <PUBCHEM_CACTVS_TAUTO_COUNT>
29

> <PUBCHEM_CONFORMER_ID>
0616A30800000004

> <PUBCHEM_MMFF94_ENERGY>
118.3202

> <PUBCHEM_FEATURE_SELFOVERLAP>
60.996

> <PUBCHEM_SHAPE_FINGERPRINT>
10165383 225 18260554381027504668
10190206 1 17979099106471760366
10675989 125 18195242213812398712
1100329 8 17259055195647838329
11115154 58 16250191713234286933
12100795 323 17549253087527284296
12788726 201 17695626247236843501
13140716 1 18050290567691072682
13402501 40 18341048639576040776
13583140 156 18413106156620731047
13617811 41 18040998475662341701
14068700 675 17760639270555939050
14114206 34 17767445368017680684
14114211 68 17900572019562742543
14932702 115 17975729325647280108
15230672 131 18192985144944513384
15351339 4 18193834843059717520
17974551 9 17899109867067099778
18681886 176 18053084147844432787
20739085 24 15741652076049411374
20764821 26 18339358561318090401
21304303 172 17403450776448001442
21344244 78 17471266489090891819
21860390 5 17989208174536766620
23536364 44 18125463946275655942
23559900 14 17970345910817629903
24771293 8 17045436020800240211
25019877 29 14893858968650672724
3187 122 17038648730999079779
3298306 158 18411129225849709163
3493558 16 17397261629747298925
350125 39 17970072153575663198
5047190 48 17400923493157887473
508706 21 18265890452653806190
5265222 85 18189347934466485132
57527573 199 18199162067692206680

> <PUBCHEM_SHAPE_MULTIPOLES>
685.07
8.62
6.76
2.02
6.62
0.31
1.11
3.27
2.84
-2.53
-5.12
-1.64
0.98
3.1

> <PUBCHEM_SHAPE_SELFOVERLAP>
1537.767

> <PUBCHEM_SHAPE_VOLUME>
359.7

> <PUBCHEM_COORDINATE_TYPE>
2
5
10

$$$$
