103857
  -OEChem-03052615013D

 43 43  0     1  0  0  0  0  0999 V2000
   -0.0935    1.7436    1.4762 O   0  0  0  0  0  0  0  0  0  0  0  0
   -0.9268    1.1862   -1.3762 O   0  0  0  0  0  0  0  0  0  0  0  0
   -2.6298    0.0104    1.5880 O   0  0  0  0  0  0  0  0  0  0  0  0
    2.4881    0.8023    0.9947 O   0  0  0  0  0  0  0  0  0  0  0  0
    1.7656   -1.7594    0.1393 O   0  0  0  0  0  0  0  0  0  0  0  0
   -2.3138   -0.2422   -2.5479 O   0  0  0  0  0  0  0  0  0  0  0  0
   -4.3423   -0.6125    0.1679 O   0  0  0  0  0  0  0  0  0  0  0  0
    3.7594    1.9774   -0.5350 O   0  0  0  0  0  0  0  0  0  0  0  0
    2.2575   -3.1993   -1.5990 O   0  0  0  0  0  0  0  0  0  0  0  0
    0.1201    0.5409    0.7152 C   0  0  1  0  0  0  0  0  0  0  0  0
   -1.0902    0.4000   -0.2027 C   0  0  1  0  0  0  0  0  0  0  0  0
   -2.1929    0.9869    0.6499 C   0  0  2  0  0  0  0  0  0  0  0  0
    1.4647    0.6206    0.0156 C   0  0  2  0  0  0  0  0  0  0  0  0
   -1.4800    2.1146    1.3766 C   0  0  0  0  0  0  0  0  0  0  0  0
    1.7700   -0.6560   -0.7602 C   0  0  0  0  0  0  0  0  0  0  0  0
   -1.5988    0.7486   -2.4839 C   0  0  0  0  0  0  0  0  0  0  0  0
   -3.7222   -0.7231    1.2169 C   0  0  0  0  0  0  0  0  0  0  0  0
    3.5833    1.5027    0.5789 C   0  0  0  0  0  0  0  0  0  0  0  0
   -1.3351    1.6693   -3.6367 C   0  0  0  0  0  0  0  0  0  0  0  0
   -4.0655   -1.7058    2.2952 C   0  0  0  0  0  0  0  0  0  0  0  0
    2.0260   -2.9800   -0.4177 C   0  0  0  0  0  0  0  0  0  0  0  0
    4.5670    1.6146    1.7039 C   0  0  0  0  0  0  0  0  0  0  0  0
    1.9891   -4.0399    0.6412 C   0  0  0  0  0  0  0  0  0  0  0  0
    0.1236   -0.2646    1.4611 H   0  0  0  0  0  0  0  0  0  0  0  0
   -1.2385   -0.6587   -0.4470 H   0  0  0  0  0  0  0  0  0  0  0  0
   -3.0349    1.3980    0.0811 H   0  0  0  0  0  0  0  0  0  0  0  0
    1.4561    1.4814   -0.6646 H   0  0  0  0  0  0  0  0  0  0  0  0
   -1.8697    2.2927    2.3830 H   0  0  0  0  0  0  0  0  0  0  0  0
   -1.5211    3.0466    0.8034 H   0  0  0  0  0  0  0  0  0  0  0  0
    1.0327   -0.8210   -1.5533 H   0  0  0  0  0  0  0  0  0  0  0  0
    2.7645   -0.5862   -1.2165 H   0  0  0  0  0  0  0  0  0  0  0  0
   -1.8717    1.3091   -4.5191 H   0  0  0  0  0  0  0  0  0  0  0  0
   -1.6923    2.6739   -3.3971 H   0  0  0  0  0  0  0  0  0  0  0  0
   -0.2656    1.6838   -3.8611 H   0  0  0  0  0  0  0  0  0  0  0  0
   -3.2277   -2.3895    2.4529 H   0  0  0  0  0  0  0  0  0  0  0  0
   -4.9389   -2.2891    1.9898 H   0  0  0  0  0  0  0  0  0  0  0  0
   -4.3075   -1.1731    3.2183 H   0  0  0  0  0  0  0  0  0  0  0  0
    4.8896    0.6175    2.0142 H   0  0  0  0  0  0  0  0  0  0  0  0
    5.4434    2.1745    1.3652 H   0  0  0  0  0  0  0  0  0  0  0  0
    4.1131    2.1508    2.5411 H   0  0  0  0  0  0  0  0  0  0  0  0
    0.9973   -4.0711    1.0993 H   0  0  0  0  0  0  0  0  0  0  0  0
    2.1940   -5.0137    0.1873 H   0  0  0  0  0  0  0  0  0  0  0  0
    2.7550   -3.8380    1.3940 H   0  0  0  0  0  0  0  0  0  0  0  0
  1 10  1  0  0  0  0
  1 14  1  0  0  0  0
  2 11  1  0  0  0  0
  2 16  1  0  0  0  0
  3 12  1  0  0  0  0
  3 17  1  0  0  0  0
  4 13  1  0  0  0  0
  4 18  1  0  0  0  0
  5 15  1  0  0  0  0
  5 21  1  0  0  0  0
  6 16  2  0  0  0  0
  7 17  2  0  0  0  0
  8 18  2  0  0  0  0
  9 21  2  0  0  0  0
 10 11  1  0  0  0  0
 10 13  1  0  0  0  0
 10 24  1  0  0  0  0
 11 12  1  0  0  0  0
 11 25  1  0  0  0  0
 12 14  1  0  0  0  0
 12 26  1  0  0  0  0
 13 15  1  0  0  0  0
 13 27  1  0  0  0  0
 14 28  1  0  0  0  0
 14 29  1  0  0  0  0
 15 30  1  0  0  0  0
 15 31  1  0  0  0  0
 16 19  1  0  0  0  0
 17 20  1  0  0  0  0
 18 22  1  0  0  0  0
 19 32  1  0  0  0  0
 19 33  1  0  0  0  0
 19 34  1  0  0  0  0
 20 35  1  0  0  0  0
 20 36  1  0  0  0  0
 20 37  1  0  0  0  0
 21 23  1  0  0  0  0
 22 38  1  0  0  0  0
 22 39  1  0  0  0  0
 22 40  1  0  0  0  0
 23 41  1  0  0  0  0
 23 42  1  0  0  0  0
 23 43  1  0  0  0  0
M  END
> <PUBCHEM_COMPOUND_CID>
103857

> <PUBCHEM_CONFORMER_RMSD>
1

> <PUBCHEM_CONFORMER_DIVERSEORDER>
1
91
164
177
203
196
90
222
123
81
349
293
26
20
308
64
38
318
265
217
176
40
300
259
243
337
167
273
200
347
145
96
17
190
39
70
305
109
270
284
148
55
205
314
254
119
326
129
142
186
363
208
202
115
111
294
365
79
161
204
191
240
236
317
242
250
169
104
221
227
249
6
214
275
113
107
231
282
94
342
357
95
335
215
80
199
333
131
188
44
329
286
313
229
220
16
182
361
257
31
89
19
181
23
338
339
179
21
266
75
247
256
233
287
336
321
244
120
218
82
212
158
137
277
288
103
261
22
141
255
195
319
262
228
301
102
156
74
264
152
175
192
296
139
50
143
165
280
170
316
117
285
180
110
207
76
112
41
121
251
178
61
130
281
124
62
30
46
146
364
328
93
132
362
101
42
358
306
59
274
149
172
163
66
315
253
60
168
51
97
271
150
241
334
298
92
136
43
68
303
269
331
206
360
327
237
173
260
34
138
4
353
58
99
83
108
160
98
11
248
289
25
151
211
28
127
307
258
198
193
322
304
325
345
114
272
290
73
245
12
366
187
225
29
235
356
53
65
330
159
171
8
350
234
32
185
27
352
344
36
232
340
299
309
230
118
56
332
252
14
52
71
125
174
72
140
223
67
219
147
57
351
183
24
134
69
116
197
153
155
106
63
209
213
263
226
210
144
320
85
278
343
355
184
268
122
311
341
238
246
239
154
84
48
302
348
224
283
291
100
201
105
18
86
276
367
279
35
292
37
87
54
7
312
162
354
3
189
126
295
346
78
135
297
194
157
267
88
166
323
359
2
13
33
10
77
45
133
216
49
47
310
15
5
128
324
9

> <PUBCHEM_MMFF94_PARTIAL_CHARGES>
23
1 -0.56
10 0.28
11 0.28
12 0.28
13 0.28
14 0.28
15 0.28
16 0.66
17 0.66
18 0.66
19 0.06
2 -0.43
20 0.06
21 0.66
22 0.06
23 0.06
3 -0.43
4 -0.43
5 -0.43
6 -0.57
7 -0.57
8 -0.57
9 -0.57

> <PUBCHEM_EFFECTIVE_ROTOR_COUNT>
11

> <PUBCHEM_PHARMACOPHORE_FEATURES>
6
1 1 acceptor
1 6 acceptor
1 7 acceptor
1 8 acceptor
1 9 acceptor
5 1 10 11 12 14 rings

> <PUBCHEM_HEAVY_ATOM_COUNT>
23

> <PUBCHEM_ATOM_DEF_STEREO_COUNT>
0

> <PUBCHEM_ATOM_UDEF_STEREO_COUNT>
4

> <PUBCHEM_BOND_DEF_STEREO_COUNT>
0

> <PUBCHEM_BOND_UDEF_STEREO_COUNT>
0

> <PUBCHEM_ISOTOPIC_ATOM_COUNT>
0

> <PUBCHEM_COMPONENT_COUNT>
1

> <PUBCHEM_CACTVS_TAUTO_COUNT>
1

> <PUBCHEM_CONFORMER_ID>
000195B100000001

> <PUBCHEM_MMFF94_ENERGY>
41.7035

> <PUBCHEM_FEATURE_SELFOVERLAP>
30.45

> <PUBCHEM_SHAPE_FINGERPRINT>
11578080 2 17970640584039002412
121448 382 17699538606546906324
12160290 23 17835225020384178174
12166972 35 12757145813996189705
12202030 40 18043255647498860231
133893 2 18055046814996454126
13583140 156 18202005378300962185
14787075 74 17772759500539545713
14863182 85 18050037620140330227
15664445 248 17169009887895203575
1813 80 17169010979149076585
18915476 22 18264752307848112870
192875 21 13262390072728666409
20344682 1 17823704250852468736
20600515 1 17240772847187292553
21285901 2 17894623752225580623
22112679 90 16772931662922267500
23402539 116 16588574435353915473
23419403 2 18263359187982295991
23557571 272 17603582998008294293
23559900 14 18337685104525513664
23598288 3 17630890404376692657
25222932 49 17701831101566598719
34934 24 17560798861873105945
469060 322 17972580350088765895
57100710 210 16950827211189181944
5845 1 13063033998982133693
59755656 520 18058168504880983088
6913067 236 18042112305692749295
81228 2 16660651687584036973

> <PUBCHEM_SHAPE_MULTIPOLES>
420.51
7.1
3.52
2.8
0.32
4.34
2.24
0.48
-3.82
3.03
0.65
-1.95
-1.31
2.91

> <PUBCHEM_SHAPE_SELFOVERLAP>
846.895

> <PUBCHEM_SHAPE_VOLUME>
245.2

> <PUBCHEM_COORDINATE_TYPE>
2
5
10

$$$$
