10419339
  -OEChem-03052615013D

 21 22  0     0  0  0  0  0  0999 V2000
    1.5835   -2.1771    0.0338 O   0  0  0  0  0  0  0  0  0  0  0  0
    2.0761    1.3828   -0.4330 C   0  0  0  0  0  0  0  0  0  0  0  0
    0.7897    1.9075    0.1913 C   0  0  0  0  0  0  0  0  0  0  0  0
    2.4599    0.0442    0.1758 C   0  0  0  0  0  0  0  0  0  0  0  0
   -0.3196    0.8976    0.0754 C   0  0  0  0  0  0  0  0  0  0  0  0
   -0.0544   -0.4793    0.0125 C   0  0  0  0  0  0  0  0  0  0  0  0
    1.3467   -0.9725    0.0506 C   0  0  0  0  0  0  0  0  0  0  0  0
   -1.6524    1.3324    0.0744 C   0  0  0  0  0  0  0  0  0  0  0  0
   -1.1055   -1.3999   -0.0763 C   0  0  0  0  0  0  0  0  0  0  0  0
   -2.6989    0.4139   -0.0132 C   0  0  0  0  0  0  0  0  0  0  0  0
   -2.4252   -0.9497   -0.0913 C   0  0  0  0  0  0  0  0  0  0  0  0
    1.9406    1.2678   -1.5164 H   0  0  0  0  0  0  0  0  0  0  0  0
    2.8849    2.1067   -0.2835 H   0  0  0  0  0  0  0  0  0  0  0  0
    0.9485    2.1379    1.2516 H   1  0  0  0  0  0  0  0  0  0  0  0
    0.5076    2.8385   -0.3146 H   1  0  0  0  0  0  0  0  0  0  0  0
    2.7060    0.1526    1.2378 H   0  0  0  0  0  0  0  0  0  0  0  0
    3.3418   -0.3450   -0.3448 H   0  0  0  0  0  0  0  0  0  0  0  0
   -1.8835    2.3929    0.1395 H   0  0  0  0  0  0  0  0  0  0  0  0
   -0.9176   -2.4687   -0.1302 H   0  0  0  0  0  0  0  0  0  0  0  0
   -3.7275    0.7625   -0.0186 H   0  0  0  0  0  0  0  0  0  0  0  0
   -3.2410   -1.6636   -0.1589 H   0  0  0  0  0  0  0  0  0  0  0  0
  1  7  2  0  0  0  0
  2  3  1  0  0  0  0
  2  4  1  0  0  0  0
  2 12  1  0  0  0  0
  2 13  1  0  0  0  0
  3  5  1  0  0  0  0
  3 14  1  0  0  0  0
  3 15  1  0  0  0  0
  4  7  1  0  0  0  0
  4 16  1  0  0  0  0
  4 17  1  0  0  0  0
  5  6  1  0  0  0  0
  5  8  2  0  0  0  0
  6  7  1  0  0  0  0
  6  9  2  0  0  0  0
  8 10  1  0  0  0  0
  8 18  1  0  0  0  0
  9 11  1  0  0  0  0
  9 19  1  0  0  0  0
 10 11  2  0  0  0  0
 10 20  1  0  0  0  0
 11 21  1  0  0  0  0
M  ISO  2  14   2  15   2
M  END
> <PUBCHEM_COMPOUND_CID>
10419339

> <PUBCHEM_CONFORMER_RMSD>
0.4

> <PUBCHEM_CONFORMER_DIVERSEORDER>
2
1

> <PUBCHEM_MMFF94_PARTIAL_CHARGES>
14
1 -0.57
10 -0.15
11 -0.15
18 0.15
19 0.15
20 0.15
21 0.15
3 0.14
4 0.06
5 -0.14
6 0.09
7 0.42
8 -0.15
9 -0.15

> <PUBCHEM_EFFECTIVE_ROTOR_COUNT>
0.6

> <PUBCHEM_PHARMACOPHORE_FEATURES>
3
1 1 acceptor
6 2 3 4 5 6 7 rings
6 5 6 8 9 10 11 rings

> <PUBCHEM_HEAVY_ATOM_COUNT>
11

> <PUBCHEM_ATOM_DEF_STEREO_COUNT>
0

> <PUBCHEM_ATOM_UDEF_STEREO_COUNT>
0

> <PUBCHEM_BOND_DEF_STEREO_COUNT>
0

> <PUBCHEM_BOND_UDEF_STEREO_COUNT>
0

> <PUBCHEM_ISOTOPIC_ATOM_COUNT>
2

> <PUBCHEM_COMPONENT_COUNT>
1

> <PUBCHEM_CACTVS_TAUTO_COUNT>
2

> <PUBCHEM_CONFORMER_ID>
009EFC8B00000002

> <PUBCHEM_MMFF94_ENERGY>
21.5036

> <PUBCHEM_FEATURE_SELFOVERLAP>
15.245

> <PUBCHEM_SHAPE_FINGERPRINT>
12423570 1 12287063288400222059
12524768 44 18198343948745607231
12897270 3 18338236084468247933
15775835 57 18339370776131187725
16945 1 18410855486029957801
17990270 104 18410011009481181506
18185500 45 18411699867899536586
193761 8 18122626046339521536
19973954 147 18410295778818919553
20201158 50 18409162212332318955
21040471 1 17905888437345175856
21501502 16 18410011048409998821
2334 1 17762617695521158225
23402655 69 18341035343090431397
23463225 33 18334851719406811104
23552423 10 18407479959499591231
241688 4 17905609895762355560
2748010 2 18122622751825045717
2897 32 18337674221067744924
369184 2 16588015844612775745
5084963 1 17986681578061312728
528886 8 18266737059432683872
53812653 166 18271520987407344600
63268167 104 18410577249463928257
66348 1 18049723223927480848
7364860 26 18343864398944921590

> <PUBCHEM_SHAPE_MULTIPOLES>
220.51
3.58
2.07
0.63
0.61
0.23
-0.01
-0.07
-0.11
-0.53
0.02
-0.03
-0.04
-0.14

> <PUBCHEM_SHAPE_SELFOVERLAP>
473.763

> <PUBCHEM_SHAPE_VOLUME>
121.5

> <PUBCHEM_COORDINATE_TYPE>
2
5
10

$$$$
