10429288
  -OEChem-03052615083D

 48 52  0     1  0  0  0  0  0999 V2000
   -0.6818   -1.3158   -1.3888 O   0  0  0  0  0  0  0  0  0  0  0  0
   -2.8916   -0.8522    1.4283 O   0  0  0  0  0  0  0  0  0  0  0  0
    4.2188   -2.1019    0.9650 O   0  0  0  0  0  0  0  0  0  0  0  0
    5.5254   -0.1717    0.3568 O   0  0  0  0  0  0  0  0  0  0  0  0
   -1.7884   -3.3331   -1.1819 O   0  0  0  0  0  0  0  0  0  0  0  0
   -5.1333   -0.9162    0.8741 O   0  0  0  0  0  0  0  0  0  0  0  0
    0.1120    2.6840   -0.1595 N   0  0  2  0  0  0  0  0  0  0  0  0
   -0.5152    1.4418   -0.6031 C   0  0  1  0  0  0  0  0  0  0  0  0
   -0.1044    0.3021    0.3277 C   0  0  1  0  0  0  0  0  0  0  0  0
   -1.9659    1.7491   -0.5502 C   0  0  0  0  0  0  0  0  0  0  0  0
   -0.9646   -0.9306   -0.0428 C   0  0  1  0  0  0  0  0  0  0  0  0
   -0.6727    3.7306   -0.8234 C   0  0  0  0  0  0  0  0  0  0  0  0
   -2.1303    3.2302   -0.7152 C   0  0  0  0  0  0  0  0  0  0  0  0
    1.4145    0.1826    0.2870 C   0  0  0  0  0  0  0  0  0  0  0  0
    1.5376    2.6497   -0.4772 C   0  0  0  0  0  0  0  0  0  0  0  0
   -2.4831   -0.6086    0.0806 C   0  0  2  0  0  0  0  0  0  0  0  0
    2.1962    1.3387   -0.0491 C   0  0  0  0  0  0  0  0  0  0  0  0
   -2.8747    0.8190   -0.2339 C   0  0  0  0  0  0  0  0  0  0  0  0
    2.0603   -1.0076    0.6543 C   0  0  0  0  0  0  0  0  0  0  0  0
    3.5987    1.2670   -0.0513 C   0  0  0  0  0  0  0  0  0  0  0  0
    3.4409   -1.0308    0.6446 C   0  0  0  0  0  0  0  0  0  0  0  0
    4.1872    0.0711    0.3008 C   0  0  0  0  0  0  0  0  0  0  0  0
   -1.3790   -2.3937   -1.8507 C   0  0  0  0  0  0  0  0  0  0  0  0
   -4.2268   -0.7152    1.6709 C   0  0  0  0  0  0  0  0  0  0  0  0
    5.5379   -1.5500    0.7800 C   0  0  0  0  0  0  0  0  0  0  0  0
   -1.5808   -2.2659   -3.3301 C   0  0  0  0  0  0  0  0  0  0  0  0
   -4.4370   -0.2727    3.0871 C   0  0  0  0  0  0  0  0  0  0  0  0
   -0.2490    1.2272   -1.6508 H   0  0  0  0  0  0  0  0  0  0  0  0
   -0.3479    0.5661    1.3693 H   0  0  0  0  0  0  0  0  0  0  0  0
   -0.7104   -1.7650    0.6227 H   0  0  0  0  0  0  0  0  0  0  0  0
   -0.3984    3.8337   -1.8815 H   0  0  0  0  0  0  0  0  0  0  0  0
   -0.5473    4.7034   -0.3376 H   0  0  0  0  0  0  0  0  0  0  0  0
   -2.6968    3.4818   -1.6165 H   0  0  0  0  0  0  0  0  0  0  0  0
   -2.6198    3.6588    0.1659 H   0  0  0  0  0  0  0  0  0  0  0  0
    2.0319    3.4824    0.0365 H   0  0  0  0  0  0  0  0  0  0  0  0
    1.7037    2.7653   -1.5564 H   0  0  0  0  0  0  0  0  0  0  0  0
   -3.0793   -1.2544   -0.5716 H   0  0  0  0  0  0  0  0  0  0  0  0
   -3.9171    1.1174   -0.1775 H   0  0  0  0  0  0  0  0  0  0  0  0
    1.5061   -1.8919    0.9470 H   0  0  0  0  0  0  0  0  0  0  0  0
    4.2036    2.1258   -0.3228 H   0  0  0  0  0  0  0  0  0  0  0  0
    6.0644   -2.1444    0.0245 H   0  0  0  0  0  0  0  0  0  0  0  0
    6.0844   -1.6214    1.7274 H   0  0  0  0  0  0  0  0  0  0  0  0
   -0.6122   -2.2425   -3.8357 H   0  0  0  0  0  0  0  0  0  0  0  0
   -2.1516   -1.3597   -3.5485 H   0  0  0  0  0  0  0  0  0  0  0  0
   -2.1445   -3.1291   -3.6953 H   0  0  0  0  0  0  0  0  0  0  0  0
   -3.9519    0.6932    3.2494 H   0  0  0  0  0  0  0  0  0  0  0  0
   -4.0387   -1.0241    3.7733 H   0  0  0  0  0  0  0  0  0  0  0  0
   -5.5083   -0.1603    3.2767 H   0  0  0  0  0  0  0  0  0  0  0  0
  1 11  1  0  0  0  0
  1 23  1  0  0  0  0
  2 16  1  0  0  0  0
  2 24  1  0  0  0  0
  3 21  1  0  0  0  0
  3 25  1  0  0  0  0
  4 22  1  0  0  0  0
  4 25  1  0  0  0  0
  5 23  2  0  0  0  0
  6 24  2  0  0  0  0
  7  8  1  0  0  0  0
  7 12  1  0  0  0  0
  7 15  1  0  0  0  0
  8  9  1  0  0  0  0
  8 10  1  0  0  0  0
  8 28  1  0  0  0  0
  9 11  1  0  0  0  0
  9 14  1  0  0  0  0
  9 29  1  0  0  0  0
 10 13  1  0  0  0  0
 10 18  2  0  0  0  0
 11 16  1  0  0  0  0
 11 30  1  0  0  0  0
 12 13  1  0  0  0  0
 12 31  1  0  0  0  0
 12 32  1  0  0  0  0
 13 33  1  0  0  0  0
 13 34  1  0  0  0  0
 14 17  1  0  0  0  0
 14 19  2  0  0  0  0
 15 17  1  0  0  0  0
 15 35  1  0  0  0  0
 15 36  1  0  0  0  0
 16 18  1  0  0  0  0
 16 37  1  0  0  0  0
 17 20  2  0  0  0  0
 18 38  1  0  0  0  0
 19 21  1  0  0  0  0
 19 39  1  0  0  0  0
 20 22  1  0  0  0  0
 20 40  1  0  0  0  0
 21 22  2  0  0  0  0
 23 26  1  0  0  0  0
 24 27  1  0  0  0  0
 25 41  1  0  0  0  0
 25 42  1  0  0  0  0
 26 43  1  0  0  0  0
 26 44  1  0  0  0  0
 26 45  1  0  0  0  0
 27 46  1  0  0  0  0
 27 47  1  0  0  0  0
 27 48  1  0  0  0  0
M  END
> <PUBCHEM_COMPOUND_CID>
10429288

> <PUBCHEM_CONFORMER_RMSD>
0.8

> <PUBCHEM_CONFORMER_DIVERSEORDER>
1
4
3
2

> <PUBCHEM_MMFF94_PARTIAL_CHARGES>
30
1 -0.43
10 -0.28
11 0.28
12 0.27
13 0.14
14 -0.14
15 0.41
16 0.42
17 -0.14
18 -0.29
19 -0.15
2 -0.43
20 -0.15
21 0.08
22 0.08
23 0.66
24 0.66
25 0.56
26 0.06
27 0.06
3 -0.36
38 0.15
39 0.15
4 -0.36
40 0.15
5 -0.57
6 -0.57
7 -0.81
8 0.41
9 0.14

> <PUBCHEM_EFFECTIVE_ROTOR_COUNT>
5.6

> <PUBCHEM_PHARMACOPHORE_FEATURES>
10
1 3 acceptor
1 4 acceptor
1 5 acceptor
1 6 acceptor
1 7 cation
5 3 4 21 22 25 rings
5 7 8 10 12 13 rings
6 14 17 19 20 21 22 rings
6 7 8 9 14 15 17 rings
6 8 9 10 11 16 18 rings

> <PUBCHEM_HEAVY_ATOM_COUNT>
27

> <PUBCHEM_ATOM_DEF_STEREO_COUNT>
4

> <PUBCHEM_ATOM_UDEF_STEREO_COUNT>
0

> <PUBCHEM_BOND_DEF_STEREO_COUNT>
0

> <PUBCHEM_BOND_UDEF_STEREO_COUNT>
0

> <PUBCHEM_ISOTOPIC_ATOM_COUNT>
0

> <PUBCHEM_COMPONENT_COUNT>
1

> <PUBCHEM_CACTVS_TAUTO_COUNT>
1

> <PUBCHEM_CONFORMER_ID>
009F236800000001

> <PUBCHEM_MMFF94_ENERGY>
75.1187

> <PUBCHEM_FEATURE_SELFOVERLAP>
51.12

> <PUBCHEM_SHAPE_FINGERPRINT>
10369192 42 16481313907027700496
10622 236 17840573014524216327
10764073 3 18115316553737412277
10906281 52 18121506756825762893
11552529 35 16987137526387996862
11578080 2 17629451302606823032
12403814 3 18413105065435267395
12422481 6 18197798612748355921
12553582 1 18336254747804670122
12633257 1 17704072919168821704
13009979 54 17628913727642023943
13140716 1 18198903802101363690
13544653 18 17894641374027600537
15042514 8 18188774924756021136
15537594 2 18338242664959395758
15775530 1 17765454049379874445
17492 89 18115868504163732714
19319366 153 17540562513552066869
20261772 1 18341894108304226578
20602899 9 17344600722314345141
21033648 29 17916000396698997416
21267235 1 18333738992243747730
221490 88 18187367606387297504
22182313 1 18055642715627695414
23419403 2 11316041191047489087
23559900 14 17603583053943199673
23598288 3 18335138674223714972
23728640 28 18198323096779384774
25147074 1 17985827266163938382
2748010 2 17983301425877470974
2818148 4 18192998350770618302
3380486 145 18268410499003771177
352729 6 18050846620053727428
376196 1 17400616256730088708
465052 167 18263658401748919587
513202 73 18264210201529825722
57527585 103 16112085295995386919
7064713 232 17775574151675391395
9709674 26 18120931703484961954
9981440 41 17766822949624883553

> <PUBCHEM_SHAPE_MULTIPOLES>
515.45
9.17
3.65
2.02
7.32
1.98
-0.39
-4.43
6.12
-1.17
-2.19
-3.14
-1.82
-0.65

> <PUBCHEM_SHAPE_SELFOVERLAP>
1141.352

> <PUBCHEM_SHAPE_VOLUME>
275.8

> <PUBCHEM_COORDINATE_TYPE>
2
5
10

$$$$
