104537
  -OEChem-03052615023D

 38 37  0     0  0  0  0  0  0999 V2000
   -1.1616   -1.0236   -0.5889 Si  0  0  0  0  0  0  0  0  0  0  0  0
    0.8988   -0.0026   -0.1247 Si  0  0  0  0  0  0  0  0  0  0  0  0
   -2.3213    0.1432   -0.3214 O   0  0  0  0  0  0  0  0  0  0  0  0
    2.0764   -1.1381   -0.4220 O   0  0  0  0  0  0  0  0  0  0  0  0
    0.8758    0.4878    1.4641 O   0  0  0  0  0  0  0  0  0  0  0  0
    1.0199    1.2892   -1.1655 O   0  0  0  0  0  0  0  0  0  0  0  0
   -4.2495   -1.0832   -0.6909 O   0  0  0  0  0  0  0  0  0  0  0  0
    1.5723   -2.7284    1.1833 O   0  0  0  0  0  0  0  0  0  0  0  0
   -1.0132    1.8281    1.4899 O   0  0  0  0  0  0  0  0  0  0  0  0
    3.0291    2.2190   -0.4870 O   0  0  0  0  0  0  0  0  0  0  0  0
   -1.0930   -1.5773   -2.3618 C   0  0  0  0  0  0  0  0  0  0  0  0
   -1.3156   -2.4713    0.5656 C   0  0  0  0  0  0  0  0  0  0  0  0
   -3.6679   -0.0438   -0.4083 C   0  0  0  0  0  0  0  0  0  0  0  0
    2.2491   -2.3081    0.2540 C   0  0  0  0  0  0  0  0  0  0  0  0
   -0.0467    1.3122    2.0364 C   0  0  0  0  0  0  0  0  0  0  0  0
    2.0376    2.1939   -1.2044 C   0  0  0  0  0  0  0  0  0  0  0  0
   -4.3689    1.2451   -0.0962 C   0  0  0  0  0  0  0  0  0  0  0  0
    3.4206   -3.0462   -0.3224 C   0  0  0  0  0  0  0  0  0  0  0  0
    0.2910    1.5051    3.4847 C   0  0  0  0  0  0  0  0  0  0  0  0
    1.7669    3.1992   -2.2843 C   0  0  0  0  0  0  0  0  0  0  0  0
   -2.0257   -2.0723   -2.6497 H   0  0  0  0  0  0  0  0  0  0  0  0
   -0.2758   -2.2868   -2.5257 H   0  0  0  0  0  0  0  0  0  0  0  0
   -0.9444   -0.7289   -3.0370 H   0  0  0  0  0  0  0  0  0  0  0  0
   -1.0700   -2.1989    1.5964 H   0  0  0  0  0  0  0  0  0  0  0  0
   -0.6773   -3.3034    0.2565 H   0  0  0  0  0  0  0  0  0  0  0  0
   -2.3436   -2.8477    0.5664 H   0  0  0  0  0  0  0  0  0  0  0  0
   -4.0584    2.0175   -0.8044 H   0  0  0  0  0  0  0  0  0  0  0  0
   -5.4493    1.1022   -0.1900 H   0  0  0  0  0  0  0  0  0  0  0  0
   -4.1449    1.5498    0.9292 H   0  0  0  0  0  0  0  0  0  0  0  0
    3.2246   -3.2928   -1.3689 H   0  0  0  0  0  0  0  0  0  0  0  0
    3.5720   -3.9763    0.2331 H   0  0  0  0  0  0  0  0  0  0  0  0
    4.3239   -2.4375   -0.2321 H   0  0  0  0  0  0  0  0  0  0  0  0
    1.2805    1.9599    3.5775 H   0  0  0  0  0  0  0  0  0  0  0  0
    0.2578    0.5441    4.0042 H   0  0  0  0  0  0  0  0  0  0  0  0
   -0.4433    2.1742    3.9423 H   0  0  0  0  0  0  0  0  0  0  0  0
    1.7010    2.6955   -3.2521 H   0  0  0  0  0  0  0  0  0  0  0  0
    0.8410    3.7374   -2.0660 H   0  0  0  0  0  0  0  0  0  0  0  0
    2.5885    3.9201   -2.3230 H   0  0  0  0  0  0  0  0  0  0  0  0
  1  2  1  0  0  0  0
  1  3  1  0  0  0  0
  1 11  1  0  0  0  0
  1 12  1  0  0  0  0
  2  4  1  0  0  0  0
  2  5  1  0  0  0  0
  2  6  1  0  0  0  0
  3 13  1  0  0  0  0
  4 14  1  0  0  0  0
  5 15  1  0  0  0  0
  6 16  1  0  0  0  0
  7 13  2  0  0  0  0
  8 14  2  0  0  0  0
  9 15  2  0  0  0  0
 10 16  2  0  0  0  0
 11 21  1  0  0  0  0
 11 22  1  0  0  0  0
 11 23  1  0  0  0  0
 12 24  1  0  0  0  0
 12 25  1  0  0  0  0
 12 26  1  0  0  0  0
 13 17  1  0  0  0  0
 14 18  1  0  0  0  0
 15 19  1  0  0  0  0
 16 20  1  0  0  0  0
 17 27  1  0  0  0  0
 17 28  1  0  0  0  0
 17 29  1  0  0  0  0
 18 30  1  0  0  0  0
 18 31  1  0  0  0  0
 18 32  1  0  0  0  0
 19 33  1  0  0  0  0
 19 34  1  0  0  0  0
 19 35  1  0  0  0  0
 20 36  1  0  0  0  0
 20 37  1  0  0  0  0
 20 38  1  0  0  0  0
M  END
> <PUBCHEM_COMPOUND_CID>
104537

> <PUBCHEM_CONFORMER_RMSD>
0.8

> <PUBCHEM_CONFORMER_DIVERSEORDER>
4
78
142
115
141
124
52
43
128
92
109
74
132
133
30
126
99
97
104
100
65
49
66
118
68
116
94
122
69
59
143
28
148
110
121
33
140
61
127
70
98
120
95
40
144
38
5
145
112
111
23
57
72
117
26
76
136
137
130
123
84
42
147
63
102
14
86
131
129
113
96
18
36
56
146
73
135
134
101
12
114
81
93
108
39
105
25
107
51
67
149
54
79
77
90
58
22
50
64
71
106
138
31
75
88
55
82
35
85
45
24
21
53
91
19
89
119
48
60
27
44
139
6
125
3
32
29
1
87
46
83
41
103
80
2
16
37
11
34
62
15
7
13
20
47
17
9
8
10

> <PUBCHEM_MMFF94_PARTIAL_CHARGES>
20
1 0.46
10 -0.57
11 -0.08
12 -0.08
13 0.66
14 0.66
15 0.66
16 0.66
17 0.06
18 0.06
19 0.06
2 0.89
20 0.06
3 -0.45
4 -0.45
5 -0.45
6 -0.45
7 -0.57
8 -0.57
9 -0.57

> <PUBCHEM_EFFECTIVE_ROTOR_COUNT>
9

> <PUBCHEM_PHARMACOPHORE_FEATURES>
4
1 10 acceptor
1 7 acceptor
1 8 acceptor
1 9 acceptor

> <PUBCHEM_HEAVY_ATOM_COUNT>
20

> <PUBCHEM_ATOM_DEF_STEREO_COUNT>
0

> <PUBCHEM_ATOM_UDEF_STEREO_COUNT>
0

> <PUBCHEM_BOND_DEF_STEREO_COUNT>
0

> <PUBCHEM_BOND_UDEF_STEREO_COUNT>
0

> <PUBCHEM_ISOTOPIC_ATOM_COUNT>
0

> <PUBCHEM_COMPONENT_COUNT>
1

> <PUBCHEM_CACTVS_TAUTO_COUNT>
1

> <PUBCHEM_CONFORMER_ID>
0001985900000004

> <PUBCHEM_MMFF94_ENERGY>
14.668

> <PUBCHEM_FEATURE_SELFOVERLAP>
20.3

> <PUBCHEM_SHAPE_FINGERPRINT>
11578080 2 17981013372730805888
12173636 292 17614006608604779429
12716301 132 17619333751052277194
13134695 92 17845351294283260287
14713325 29 17536608656683999872
14817 1 16092558124019992096
15238133 3 17630898097375205049
16945 1 18336276681648873350
1813 80 18190446178514821706
19765921 60 18125450953609220948
19786989 88 17823683355947207399
20233049 118 17846779619811776133
20511035 2 18271234015051979503
20600515 1 18129095619896787110
20671657 53 18262803934641911110
229495 10 18047783617108538715
23352939 185 18266463114061150918
23419403 2 17624371387208761032
23559900 14 18336249207576810191
23598291 2 18195262026432692276
266924 78 17901426460055804656
298252 57 17681836546295936572
3286 77 17988345028170784063
394222 165 18339934804237230552
5845 1 17326361834127123108
68419 9 17556897695722641600
7364860 26 18335420192334942374
81228 2 17981896241813055250
9999458 23 18041000592733091055

> <PUBCHEM_SHAPE_MULTIPOLES>
401.06
5.46
3.73
2.47
5.12
0.23
1.42
0.8
-1.64
-3.49
-0.63
-0.61
-1.97
-1.54

> <PUBCHEM_SHAPE_SELFOVERLAP>
758.695

> <PUBCHEM_SHAPE_VOLUME>
248.4

> <PUBCHEM_COORDINATE_TYPE>
2
5
10

$$$$
