104719
  -OEChem-03052615033D

 53 54  0     0  0  0  0  0  0999 V2000
   -2.1177   -1.7789    2.7208 I   0  0  0  0  0  0  0  0  0  0  0  0
    3.1887    2.6161    0.6363 O   0  0  0  0  0  0  0  0  0  0  0  0
    3.2851   -3.7181   -0.8538 O   0  0  0  0  0  0  0  0  0  0  0  0
   -2.4691    3.1378   -0.9466 O   0  5  0  0  0  0  0  0  0  0  0  0
   -2.1353    1.5602   -2.4363 O   0  0  0  0  0  0  0  0  0  0  0  0
   -7.2812    0.3898   -0.7344 O   0  5  0  0  0  0  0  0  0  0  0  0
   -7.2157   -1.1100    0.8673 O   0  0  0  0  0  0  0  0  0  0  0  0
    5.0221    0.5238    0.2156 N   0  0  0  0  0  0  0  0  0  0  0  0
    1.3105   -2.4495   -0.6352 N   0  0  0  0  0  0  0  0  0  0  0  0
   -0.5017   -0.3157   -0.2018 N   0  0  0  0  0  0  0  0  0  0  0  0
   -1.1013    0.4713    0.5666 N   0  0  0  0  0  0  0  0  0  0  0  0
   -2.5744    1.9489   -1.3288 N   0  3  0  0  0  0  0  0  0  0  0  0
   -6.6481   -0.2801    0.1168 N   0  3  0  0  0  0  0  0  0  0  0  0
    3.6293    0.3168    0.1116 C   0  0  0  0  0  0  0  0  0  0  0  0
    5.8858    0.2788   -0.9212 C   0  0  0  0  0  0  0  0  0  0  0  0
    5.6015    0.9967    1.4563 C   0  0  0  0  0  0  0  0  0  0  0  0
    2.7375    1.3682    0.3248 C   0  0  0  0  0  0  0  0  0  0  0  0
    3.1472   -0.9526   -0.2077 C   0  0  0  0  0  0  0  0  0  0  0  0
    1.7735   -1.1706   -0.3141 C   0  0  0  0  0  0  0  0  0  0  0  0
    0.8818   -0.1192   -0.1006 C   0  0  0  0  0  0  0  0  0  0  0  0
    1.3637    1.1502    0.2191 C   0  0  0  0  0  0  0  0  0  0  0  0
    6.0102    1.5344   -1.7627 C   0  0  0  0  0  0  0  0  0  0  0  0
    5.9574   -0.1776    2.3476 C   0  0  0  0  0  0  0  0  0  0  0  0
    2.0639   -3.6040   -0.8786 C   0  0  0  0  0  0  0  0  0  0  0  0
    2.2050    3.6287    0.8369 C   0  0  0  0  0  0  0  0  0  0  0  0
   -2.4891    0.2740    0.4645 C   0  0  0  0  0  0  0  0  0  0  0  0
   -3.2145    1.0071   -0.4748 C   0  0  0  0  0  0  0  0  0  0  0  0
   -3.1418   -0.6427    1.2886 C   0  0  0  0  0  0  0  0  0  0  0  0
    1.1841   -4.7875   -1.1938 C   0  0  0  0  0  0  0  0  0  0  0  0
   -4.5926    0.8239   -0.5899 C   0  0  0  0  0  0  0  0  0  0  0  0
   -5.2451   -0.0933    0.2342 C   0  0  0  0  0  0  0  0  0  0  0  0
   -4.5197   -0.8266    1.1734 C   0  0  0  0  0  0  0  0  0  0  0  0
    5.5188   -0.5437   -1.5458 H   0  0  0  0  0  0  0  0  0  0  0  0
    6.8834   -0.0230   -0.5796 H   0  0  0  0  0  0  0  0  0  0  0  0
    4.9344    1.6653    2.0091 H   0  0  0  0  0  0  0  0  0  0  0  0
    6.5092    1.5774    1.2520 H   0  0  0  0  0  0  0  0  0  0  0  0
    3.8869   -1.7281   -0.3430 H   0  0  0  0  0  0  0  0  0  0  0  0
    0.6510    1.9568    0.3455 H   0  0  0  0  0  0  0  0  0  0  0  0
    6.6812    1.3592   -2.6095 H   0  0  0  0  0  0  0  0  0  0  0  0
    6.4124    2.3683   -1.1780 H   0  0  0  0  0  0  0  0  0  0  0  0
    5.0377    1.8438   -2.1600 H   0  0  0  0  0  0  0  0  0  0  0  0
    6.4208    0.1751    3.2743 H   0  0  0  0  0  0  0  0  0  0  0  0
    6.6618   -0.8544    1.8525 H   0  0  0  0  0  0  0  0  0  0  0  0
    5.0675   -0.7579    2.6136 H   0  0  0  0  0  0  0  0  0  0  0  0
    0.2983   -2.5386   -0.6968 H   0  0  0  0  0  0  0  0  0  0  0  0
    2.7414    4.5507    1.0849 H   0  0  0  0  0  0  0  0  0  0  0  0
    1.5576    3.4029    1.6913 H   0  0  0  0  0  0  0  0  0  0  0  0
    1.6395    3.8315   -0.0792 H   0  0  0  0  0  0  0  0  0  0  0  0
    0.5784   -4.5739   -2.0791 H   0  0  0  0  0  0  0  0  0  0  0  0
    0.5283   -4.9974   -0.3441 H   0  0  0  0  0  0  0  0  0  0  0  0
    1.8027   -5.6674   -1.3913 H   0  0  0  0  0  0  0  0  0  0  0  0
   -5.1395    1.4060   -1.3290 H   0  0  0  0  0  0  0  0  0  0  0  0
   -5.0176   -1.5447    1.8215 H   0  0  0  0  0  0  0  0  0  0  0  0
  1 28  1  0  0  0  0
  2 17  1  0  0  0  0
  2 25  1  0  0  0  0
  3 24  2  0  0  0  0
  4 12  1  0  0  0  0
  5 12  2  0  0  0  0
  6 13  1  0  0  0  0
  7 13  2  0  0  0  0
  8 14  1  0  0  0  0
  8 15  1  0  0  0  0
  8 16  1  0  0  0  0
  9 19  1  0  0  0  0
  9 24  1  0  0  0  0
  9 45  1  0  0  0  0
 10 11  2  0  0  0  0
 10 20  1  0  0  0  0
 11 26  1  0  0  0  0
 12 27  1  0  0  0  0
 13 31  1  0  0  0  0
 14 17  2  0  0  0  0
 14 18  1  0  0  0  0
 15 22  1  0  0  0  0
 15 33  1  0  0  0  0
 15 34  1  0  0  0  0
 16 23  1  0  0  0  0
 16 35  1  0  0  0  0
 16 36  1  0  0  0  0
 17 21  1  0  0  0  0
 18 19  2  0  0  0  0
 18 37  1  0  0  0  0
 19 20  1  0  0  0  0
 20 21  2  0  0  0  0
 21 38  1  0  0  0  0
 22 39  1  0  0  0  0
 22 40  1  0  0  0  0
 22 41  1  0  0  0  0
 23 42  1  0  0  0  0
 23 43  1  0  0  0  0
 23 44  1  0  0  0  0
 24 29  1  0  0  0  0
 25 46  1  0  0  0  0
 25 47  1  0  0  0  0
 25 48  1  0  0  0  0
 26 27  2  0  0  0  0
 26 28  1  0  0  0  0
 27 30  1  0  0  0  0
 28 32  2  0  0  0  0
 29 49  1  0  0  0  0
 29 50  1  0  0  0  0
 29 51  1  0  0  0  0
 30 31  2  0  0  0  0
 30 52  1  0  0  0  0
 31 32  1  0  0  0  0
 32 53  1  0  0  0  0
M  CHG  4   4  -1   6  -1  12   1  13   1
M  END
> <PUBCHEM_COMPOUND_CID>
104719

> <PUBCHEM_CONFORMER_RMSD>
1

> <PUBCHEM_CONFORMER_DIVERSEORDER>
1
12
4
11
10
3
7
13
5
8
9
6
2

> <PUBCHEM_MMFF94_PARTIAL_CHARGES>
35
1 -0.08
10 -0.18
11 -0.18
12 0.91
13 0.91
14 0.1
15 0.37
16 0.37
17 0.08
18 -0.15
19 0.12
2 -0.36
20 0.18
21 -0.15
24 0.57
25 0.28
26 0.18
27 0.13
28 0.08
29 0.06
3 -0.57
30 -0.15
31 0.13
32 -0.15
37 0.15
38 0.15
4 -0.52
45 0.37
5 -0.52
52 0.15
53 0.15
6 -0.52
7 -0.52
8 -0.84
9 -0.55

> <PUBCHEM_EFFECTIVE_ROTOR_COUNT>
10

> <PUBCHEM_PHARMACOPHORE_FEATURES>
13
1 1 hydrophobe
1 2 acceptor
1 3 acceptor
1 4 acceptor
1 4 anion
1 5 acceptor
1 6 acceptor
1 6 anion
1 7 acceptor
1 8 cation
1 9 donor
6 14 17 18 19 20 21 rings
6 26 27 28 30 31 32 rings

> <PUBCHEM_HEAVY_ATOM_COUNT>
32

> <PUBCHEM_ATOM_DEF_STEREO_COUNT>
0

> <PUBCHEM_ATOM_UDEF_STEREO_COUNT>
0

> <PUBCHEM_BOND_DEF_STEREO_COUNT>
0

> <PUBCHEM_BOND_UDEF_STEREO_COUNT>
0

> <PUBCHEM_ISOTOPIC_ATOM_COUNT>
0

> <PUBCHEM_COMPONENT_COUNT>
1

> <PUBCHEM_CACTVS_TAUTO_COUNT>
2

> <PUBCHEM_CONFORMER_ID>
0001990F00000001

> <PUBCHEM_MMFF94_ENERGY>
125.7359

> <PUBCHEM_FEATURE_SELFOVERLAP>
66.136

> <PUBCHEM_SHAPE_FINGERPRINT>
10 15 18335975467809761224
10366900 7 18335146400980929505
10693767 8 17774732948503833086
10906281 52 18042143036463508977
11719270 70 18413105057014521130
11963148 33 18335698381694255243
12202916 173 18188197784615373459
12236239 1 16343707633876049337
12596602 18 16559030514912978323
12730499 353 18413393137444944862
13383665 225 18042989591745413285
13383668 1 17968361412868692819
13402501 40 18333169483564249889
13692114 37 18198614617622232539
13911987 19 18269010807225869804
140371 6 18188224168837135037
15961568 22 17676216775110628292
16728300 4 17753864179290861586
1813 80 12685088143092235122
19319366 153 17917986209050845023
20511986 3 16845291605673092201
20771845 171 18260559918089811646
21033648 29 18200859760705893600
21033650 10 16807590357063545412
21781051 124 18335711546512224842
21792961 116 18335433344358122244
22956985 138 17976254643904907418
23557571 272 17894914018842006093
23559900 14 17895760724178414241
23569943 247 17057832636915453766
3178227 256 18341898523651881000
3298306 158 18410014330081868414
469060 322 18267007522377369079
5104073 3 18268425724746537185
59755656 215 18333170565616342627
6669772 16 18059584572916014214
6679774 75 18334007269420305746

> <PUBCHEM_SHAPE_MULTIPOLES>
605.38
15.71
3.94
1.9
9.98
3.48
0.79
-3.45
1.1
-3.22
-1.69
-0.61
0.46
2.54

> <PUBCHEM_SHAPE_SELFOVERLAP>
1255.018

> <PUBCHEM_SHAPE_VOLUME>
352.1

> <PUBCHEM_COORDINATE_TYPE>
2
5
10

$$$$
