10718718
  -OEChem-03052615073D

 83 87  0     1  0  0  0  0  0999 V2000
   -7.6004   -1.0644   -1.1032 O   0  0  0  0  0  0  0  0  0  0  0  0
    6.9560   -1.3668   -1.1685 O   0  0  0  0  0  0  0  0  0  0  0  0
    7.5102   -2.6938   -1.3637 O   0  0  0  0  0  0  0  0  0  0  0  0
   -2.0214    0.3489   -0.4420 C   0  0  1  0  0  0  0  0  0  0  0  0
   -3.4853   -0.1489   -0.6075 C   0  0  2  0  0  0  0  0  0  0  0  0
   -3.1667    1.3197   -0.6864 C   0  0  0  0  0  0  0  0  0  0  0  0
   -1.4129    0.4303    0.9829 C   0  0  2  0  0  0  0  0  0  0  0  0
   -4.2113   -0.7466    0.6079 C   0  0  1  0  0  0  0  0  0  0  0  0
    0.1302    0.2780    0.9789 C   0  0  1  0  0  0  0  0  0  0  0  0
   -1.0614    0.1088   -1.6162 C   0  0  0  0  0  0  0  0  0  0  0  0
    0.7342    1.2036   -0.1277 C   0  0  2  0  0  0  0  0  0  0  0  0
   -3.9293   -0.8122   -1.9015 C   0  0  0  0  0  0  0  0  0  0  0  0
   -2.1223   -0.5058    1.9704 C   0  0  0  0  0  0  0  0  0  0  0  0
   -3.6307   -0.2747    1.9485 C   0  0  0  0  0  0  0  0  0  0  0  0
    0.3850    0.6220   -1.4971 C   0  0  0  0  0  0  0  0  0  0  0  0
   -5.7706   -0.6146    0.4750 C   0  0  0  0  0  0  0  0  0  0  0  0
    2.2447    1.1768    0.2313 C   0  0  2  0  0  0  0  0  0  0  0  0
    0.8374    0.8195    2.2393 C   0  0  0  0  0  0  0  0  0  0  0  0
   -5.4377   -0.6888   -2.0831 C   0  0  0  0  0  0  0  0  0  0  0  0
   -6.2030   -1.2504   -0.8835 C   0  0  2  0  0  0  0  0  0  0  0  0
    2.2556    1.2050    1.7761 C   0  0  0  0  0  0  0  0  0  0  0  0
    0.5281   -1.2251    0.8476 C   0  0  0  0  0  0  0  0  0  0  0  0
    0.2226    2.6753   -0.0901 C   0  0  0  0  0  0  0  0  0  0  0  0
    3.1273    2.2592   -0.3800 C   0  0  1  0  0  0  0  0  0  0  0  0
   -6.4728   -1.3990    1.6104 C   0  0  0  0  0  0  0  0  0  0  0  0
   -6.2532    0.8488    0.5781 C   0  0  0  0  0  0  0  0  0  0  0  0
    4.6051    2.1185    0.0397 C   0  0  0  0  0  0  0  0  0  0  0  0
    3.0234    2.2193   -1.9086 C   0  0  0  0  0  0  0  0  0  0  0  0
    5.2072    0.8039   -0.3723 C   0  0  0  0  0  0  0  0  0  0  0  0
    5.7731   -0.0570    0.4885 C   0  0  0  0  0  0  0  0  0  0  0  0
    6.3950   -1.3931    0.1450 C   0  0  0  0  0  0  0  0  0  0  0  0
    7.5201   -1.7107    1.1330 C   0  0  0  0  0  0  0  0  0  0  0  0
    5.3235   -2.4857    0.1788 C   0  0  0  0  0  0  0  0  0  0  0  0
   -3.4848    1.9703    0.1202 H   0  0  0  0  0  0  0  0  0  0  0  0
   -3.2281    1.8143   -1.6505 H   0  0  0  0  0  0  0  0  0  0  0  0
   -1.6244    1.4431    1.3546 H   0  0  0  0  0  0  0  0  0  0  0  0
   -3.9950   -1.8263    0.5650 H   0  0  0  0  0  0  0  0  0  0  0  0
   -1.4769    0.5410   -2.5352 H   0  0  0  0  0  0  0  0  0  0  0  0
   -1.0273   -0.9725   -1.8010 H   0  0  0  0  0  0  0  0  0  0  0  0
   -3.6391   -1.8698   -1.8807 H   0  0  0  0  0  0  0  0  0  0  0  0
   -3.4477   -0.3698   -2.7794 H   0  0  0  0  0  0  0  0  0  0  0  0
   -1.7465   -0.3268    2.9845 H   0  0  0  0  0  0  0  0  0  0  0  0
   -1.9304   -1.5582    1.7340 H   0  0  0  0  0  0  0  0  0  0  0  0
   -4.0713   -0.8452    2.7729 H   0  0  0  0  0  0  0  0  0  0  0  0
   -3.8470    0.7816    2.1384 H   0  0  0  0  0  0  0  0  0  0  0  0
    1.0597   -0.2059   -1.7509 H   0  0  0  0  0  0  0  0  0  0  0  0
    0.5285    1.3586   -2.2936 H   0  0  0  0  0  0  0  0  0  0  0  0
    2.6484    0.2079   -0.0864 H   0  0  0  0  0  0  0  0  0  0  0  0
    0.8723    0.0937    3.0590 H   0  0  0  0  0  0  0  0  0  0  0  0
    0.3271    1.7070    2.6318 H   0  0  0  0  0  0  0  0  0  0  0  0
   -5.7168    0.3588   -2.2504 H   0  0  0  0  0  0  0  0  0  0  0  0
   -5.7427   -1.2191   -2.9938 H   0  0  0  0  0  0  0  0  0  0  0  0
   -6.0306   -2.3339   -0.8383 H   0  0  0  0  0  0  0  0  0  0  0  0
    2.5107    2.1929    2.1758 H   0  0  0  0  0  0  0  0  0  0  0  0
    2.9925    0.4932    2.1647 H   0  0  0  0  0  0  0  0  0  0  0  0
    0.0131   -1.7276    0.0257 H   0  0  0  0  0  0  0  0  0  0  0  0
    1.5996   -1.3792    0.6981 H   0  0  0  0  0  0  0  0  0  0  0  0
    0.2793   -1.7758    1.7623 H   0  0  0  0  0  0  0  0  0  0  0  0
    0.4328    3.1623    0.8674 H   0  0  0  0  0  0  0  0  0  0  0  0
    0.6705    3.2975   -0.8683 H   0  0  0  0  0  0  0  0  0  0  0  0
   -0.8536    2.7530   -0.2574 H   0  0  0  0  0  0  0  0  0  0  0  0
    2.8096    3.2532   -0.0416 H   0  0  0  0  0  0  0  0  0  0  0  0
   -6.2887   -0.9475    2.5907 H   0  0  0  0  0  0  0  0  0  0  0  0
   -7.5597   -1.4191    1.4716 H   0  0  0  0  0  0  0  0  0  0  0  0
   -6.1250   -2.4374    1.6462 H   0  0  0  0  0  0  0  0  0  0  0  0
   -5.9543    1.3056    1.5270 H   0  0  0  0  0  0  0  0  0  0  0  0
   -5.8646    1.4741   -0.2292 H   0  0  0  0  0  0  0  0  0  0  0  0
   -7.3467    0.9102    0.5314 H   0  0  0  0  0  0  0  0  0  0  0  0
   -7.8287   -1.5079   -1.9379 H   0  0  0  0  0  0  0  0  0  0  0  0
    4.7011    2.2677    1.1218 H   0  0  0  0  0  0  0  0  0  0  0  0
    5.1923    2.9216   -0.4239 H   0  0  0  0  0  0  0  0  0  0  0  0
    3.8541    2.7725   -2.3638 H   0  0  0  0  0  0  0  0  0  0  0  0
    3.0581    1.2006   -2.3078 H   0  0  0  0  0  0  0  0  0  0  0  0
    2.1239    2.7127   -2.2785 H   0  0  0  0  0  0  0  0  0  0  0  0
    5.2151    0.5689   -1.4330 H   0  0  0  0  0  0  0  0  0  0  0  0
    5.7377    0.1938    1.5479 H   0  0  0  0  0  0  0  0  0  0  0  0
    8.3566   -1.0122    1.0100 H   0  0  0  0  0  0  0  0  0  0  0  0
    7.9306   -2.7175    0.9973 H   0  0  0  0  0  0  0  0  0  0  0  0
    7.1737   -1.6483    2.1713 H   0  0  0  0  0  0  0  0  0  0  0  0
    5.7431   -3.4910    0.0605 H   0  0  0  0  0  0  0  0  0  0  0  0
    4.7741   -2.4766    1.1276 H   0  0  0  0  0  0  0  0  0  0  0  0
    4.5997   -2.3517   -0.6343 H   0  0  0  0  0  0  0  0  0  0  0  0
    8.4424   -2.4184   -1.3335 H   0  0  0  0  0  0  0  0  0  0  0  0
  1 20  1  0  0  0  0
  1 69  1  0  0  0  0
  2  3  1  0  0  0  0
  2 31  1  0  0  0  0
  3 83  1  0  0  0  0
  4  5  1  0  0  0  0
  4  6  1  0  0  0  0
  4  7  1  0  0  0  0
  4 10  1  0  0  0  0
  5  6  1  0  0  0  0
  5  8  1  0  0  0  0
  5 12  1  0  0  0  0
  6 34  1  0  0  0  0
  6 35  1  0  0  0  0
  7  9  1  0  0  0  0
  7 13  1  0  0  0  0
  7 36  1  0  0  0  0
  8 14  1  0  0  0  0
  8 16  1  0  0  0  0
  8 37  1  0  0  0  0
  9 11  1  0  0  0  0
  9 18  1  0  0  0  0
  9 22  1  0  0  0  0
 10 15  1  0  0  0  0
 10 38  1  0  0  0  0
 10 39  1  0  0  0  0
 11 15  1  0  0  0  0
 11 17  1  0  0  0  0
 11 23  1  0  0  0  0
 12 19  1  0  0  0  0
 12 40  1  0  0  0  0
 12 41  1  0  0  0  0
 13 14  1  0  0  0  0
 13 42  1  0  0  0  0
 13 43  1  0  0  0  0
 14 44  1  0  0  0  0
 14 45  1  0  0  0  0
 15 46  1  0  0  0  0
 15 47  1  0  0  0  0
 16 20  1  0  0  0  0
 16 25  1  0  0  0  0
 16 26  1  0  0  0  0
 17 21  1  0  0  0  0
 17 24  1  0  0  0  0
 17 48  1  0  0  0  0
 18 21  1  0  0  0  0
 18 49  1  0  0  0  0
 18 50  1  0  0  0  0
 19 20  1  0  0  0  0
 19 51  1  0  0  0  0
 19 52  1  0  0  0  0
 20 53  1  0  0  0  0
 21 54  1  0  0  0  0
 21 55  1  0  0  0  0
 22 56  1  0  0  0  0
 22 57  1  0  0  0  0
 22 58  1  0  0  0  0
 23 59  1  0  0  0  0
 23 60  1  0  0  0  0
 23 61  1  0  0  0  0
 24 27  1  0  0  0  0
 24 28  1  0  0  0  0
 24 62  1  0  0  0  0
 25 63  1  0  0  0  0
 25 64  1  0  0  0  0
 25 65  1  0  0  0  0
 26 66  1  0  0  0  0
 26 67  1  0  0  0  0
 26 68  1  0  0  0  0
 27 29  1  0  0  0  0
 27 70  1  0  0  0  0
 27 71  1  0  0  0  0
 28 72  1  0  0  0  0
 28 73  1  0  0  0  0
 28 74  1  0  0  0  0
 29 30  2  0  0  0  0
 29 75  1  0  0  0  0
 30 31  1  0  0  0  0
 30 76  1  0  0  0  0
 31 32  1  0  0  0  0
 31 33  1  0  0  0  0
 32 77  1  0  0  0  0
 32 78  1  0  0  0  0
 32 79  1  0  0  0  0
 33 80  1  0  0  0  0
 33 81  1  0  0  0  0
 33 82  1  0  0  0  0
M  END
> <PUBCHEM_COMPOUND_CID>
10718718

> <PUBCHEM_CONFORMER_RMSD>
1

> <PUBCHEM_CONFORMER_DIVERSEORDER>
3
10
7
6
1
2
4
11
9
5
8

> <PUBCHEM_MMFF94_PARTIAL_CHARGES>
21
1 -0.68
10 0.09
12 0.09
2 -0.28
20 0.28
27 0.14
29 -0.29
3 -0.4
30 -0.29
31 0.42
34 0.1
35 0.1
4 -0.19
5 -0.19
6 -0.2
69 0.4
7 0.09
75 0.15
76 0.15
8 0.09
83 0.4

> <PUBCHEM_EFFECTIVE_ROTOR_COUNT>
7.4

> <PUBCHEM_PHARMACOPHORE_FEATURES>
9
1 1 acceptor
1 1 donor
1 28 hydrophobe
3 16 25 26 hydrophobe
3 31 32 33 hydrophobe
5 9 11 17 18 21 rings
6 4 7 9 10 11 15 rings
6 5 8 12 16 19 20 rings
7 4 5 6 7 8 13 14 rings

> <PUBCHEM_HEAVY_ATOM_COUNT>
33

> <PUBCHEM_ATOM_DEF_STEREO_COUNT>
9

> <PUBCHEM_ATOM_UDEF_STEREO_COUNT>
0

> <PUBCHEM_BOND_DEF_STEREO_COUNT>
1

> <PUBCHEM_BOND_UDEF_STEREO_COUNT>
0

> <PUBCHEM_ISOTOPIC_ATOM_COUNT>
0

> <PUBCHEM_COMPONENT_COUNT>
1

> <PUBCHEM_CACTVS_TAUTO_COUNT>
1

> <PUBCHEM_CONFORMER_ID>
00A38DFE00000003

> <PUBCHEM_MMFF94_ENERGY>
129.6069

> <PUBCHEM_FEATURE_SELFOVERLAP>
45.776

> <PUBCHEM_SHAPE_FINGERPRINT>
10 15 13973962121479280266
10319926 262 15267060380538294675
10591671 39 14707209928836288425
10670039 82 15502368990007253646
10906281 52 13407068163867147013
11991303 11 16660650699267143722
12011746 2 17095233752909238929
12166972 35 18343865520169074592
12236239 1 17989208178715377201
12422481 6 17703240494667705420
13383665 225 14996833296443337503
13533116 47 18343584071136228232
1361 2 18412825764366798730
13782708 43 18334293197032038946
13811026 1 17967808350177198124
13914758 101 18342740693803543961
14028597 1 17132122320391849122
14251757 52 12107785203293768286
14347332 77 18411415073245941700
14461889 52 14117523151099050540
14856354 85 13912610485161850371
14955137 171 17895198852187866541
15119646 104 18060421317774181022
15183329 4 17458340819351686048
15510800 12 18335708200727588994
16994733 274 10809338944861856686
17349148 13 18059586788854802672
20105231 36 16660369177799244371
2026 5 18339921520104792582
20567600 247 18341606027921204110
21267235 1 16298390210466204177
21279426 13 17312821619014312673
21344244 181 18113901584919325914
21682296 61 18335704914544162334
21792934 111 14836138606147744537
22061861 79 18187083974935629178
23522609 53 17630068146000090481
23559900 14 17749672999009201897
23569914 152 17395816944467378807
23569943 247 18339358565544992715
23576562 1 14057301846974126687
24771293 8 13038897846320347736
3383291 50 18334290968530140586
34797466 226 17095808827518647716
350125 39 16153696670462923509
46194498 28 17676485077818157268
474113 269 17561076978237801231
5085150 59 16343985823281946103
5104073 3 15984257581815051907
5109719 28 12103559814621204250
513202 73 18341048532043609397
5265222 85 15647342973588867259
59755656 215 16950274109432129426
6081469 158 18060412539620761261
6086070 43 17417230092901863305
6608658 132 13840255957943287415

> <PUBCHEM_SHAPE_MULTIPOLES>
661.52
19.8
2.37
2.01
8.97
0.25
-0.03
-13.78
-4.86
4.35
-0.33
-1.26
-0.26
0.85

> <PUBCHEM_SHAPE_SELFOVERLAP>
1393.777

> <PUBCHEM_SHAPE_VOLUME>
374.5

> <PUBCHEM_COORDINATE_TYPE>
2
5
10

$$$$
