10812337
  -OEChem-03052615083D

 57 60  0     1  0  0  0  0  0999 V2000
   -3.5342    0.9109   -1.2162 O   0  0  0  0  0  0  0  0  0  0  0  0
   -0.8082    1.5674    0.9879 O   0  0  0  0  0  0  0  0  0  0  0  0
   -2.6850   -0.6075   -2.8530 O   0  0  0  0  0  0  0  0  0  0  0  0
    1.3173   -0.4542   -0.4679 O   0  0  0  0  0  0  0  0  0  0  0  0
   -3.3596   -1.2903   -0.4619 O   0  0  0  0  0  0  0  0  0  0  0  0
    2.0680   -4.0490    1.3605 O   0  0  0  0  0  0  0  0  0  0  0  0
   -1.2264    3.7848    1.4829 O   0  0  0  0  0  0  0  0  0  0  0  0
   -1.2183    0.4417   -1.1862 C   0  0  2  0  0  0  0  0  0  0  0  0
   -1.4683    1.6369   -0.2598 C   0  0  1  0  0  0  0  0  0  0  0  0
   -3.0036    1.7211   -0.1412 C   0  0  0  0  0  0  0  0  0  0  0  0
   -2.4497    0.5617   -2.0900 C   0  0  2  0  0  0  0  0  0  0  0  0
   -0.9990   -0.8809   -0.4662 C   0  0  0  0  0  0  0  0  0  0  0  0
   -3.4909    3.1573   -0.3669 C   0  0  0  0  0  0  0  0  0  0  0  0
   -3.5745    1.2068    1.1809 C   0  0  0  0  0  0  0  0  0  0  0  0
    0.2890   -1.2915   -0.1200 C   0  0  0  0  0  0  0  0  0  0  0  0
   -2.0954   -1.6800   -0.1407 C   0  0  0  0  0  0  0  0  0  0  0  0
    0.4778   -2.5181    0.5234 C   0  0  0  0  0  0  0  0  0  0  0  0
    2.4843   -0.6318    0.3501 C   0  0  1  0  0  0  0  0  0  0  0  0
   -1.9058   -2.8937    0.5211 C   0  0  0  0  0  0  0  0  0  0  0  0
    2.9614   -2.0824    0.3167 C   0  0  0  0  0  0  0  0  0  0  0  0
   -0.6187   -3.3191    0.8518 C   0  0  0  0  0  0  0  0  0  0  0  0
    1.8529   -2.9763    0.8091 C   0  0  0  0  0  0  0  0  0  0  0  0
   -1.0092    2.6295    1.8222 C   0  0  0  0  0  0  0  0  0  0  0  0
    3.5632    0.3089   -0.1440 C   0  0  0  0  0  0  0  0  0  0  0  0
   -0.9259    2.1751    3.2479 C   0  0  0  0  0  0  0  0  0  0  0  0
   -4.4202   -2.1684   -0.0913 C   0  0  0  0  0  0  0  0  0  0  0  0
    4.4789    0.8534    0.7561 C   0  0  0  0  0  0  0  0  0  0  0  0
    3.6411    0.6302   -1.4989 C   0  0  0  0  0  0  0  0  0  0  0  0
    5.4728    1.7198    0.3012 C   0  0  0  0  0  0  0  0  0  0  0  0
    4.6352    1.4965   -1.9538 C   0  0  0  0  0  0  0  0  0  0  0  0
    5.5511    2.0413   -1.0538 C   0  0  0  0  0  0  0  0  0  0  0  0
   -0.3394    0.6173   -1.8198 H   0  0  0  0  0  0  0  0  0  0  0  0
   -1.0837    2.5198   -0.7918 H   0  0  0  0  0  0  0  0  0  0  0  0
   -2.3126    1.3976   -2.7890 H   0  0  0  0  0  0  0  0  0  0  0  0
   -3.3020    3.8277    0.4718 H   0  0  0  0  0  0  0  0  0  0  0  0
   -3.0491    3.5903   -1.2717 H   0  0  0  0  0  0  0  0  0  0  0  0
   -4.5747    3.1587   -0.5391 H   0  0  0  0  0  0  0  0  0  0  0  0
   -3.5273    1.9532    1.9791 H   0  0  0  0  0  0  0  0  0  0  0  0
   -4.6308    0.9381    1.0589 H   0  0  0  0  0  0  0  0  0  0  0  0
   -3.0679    0.3073    1.5389 H   0  0  0  0  0  0  0  0  0  0  0  0
   -3.2024   -0.3441   -3.6327 H   0  0  0  0  0  0  0  0  0  0  0  0
    2.2124   -0.3363    1.3745 H   0  0  0  0  0  0  0  0  0  0  0  0
   -2.7100   -3.5642    0.8041 H   0  0  0  0  0  0  0  0  0  0  0  0
    3.8357   -2.2143    0.9638 H   0  0  0  0  0  0  0  0  0  0  0  0
    3.2205   -2.4029   -0.6993 H   0  0  0  0  0  0  0  0  0  0  0  0
   -0.4897   -4.2748    1.3522 H   0  0  0  0  0  0  0  0  0  0  0  0
   -1.4868    1.2476    3.3881 H   0  0  0  0  0  0  0  0  0  0  0  0
   -1.3672    2.9373    3.8964 H   0  0  0  0  0  0  0  0  0  0  0  0
    0.1211    2.0279    3.5234 H   0  0  0  0  0  0  0  0  0  0  0  0
   -4.4916   -2.2797    0.9960 H   0  0  0  0  0  0  0  0  0  0  0  0
   -4.3472   -3.1315   -0.6080 H   0  0  0  0  0  0  0  0  0  0  0  0
   -5.3535   -1.7014   -0.4230 H   0  0  0  0  0  0  0  0  0  0  0  0
    4.4292    0.6090    1.8139 H   0  0  0  0  0  0  0  0  0  0  0  0
    2.9481    0.2097   -2.2225 H   0  0  0  0  0  0  0  0  0  0  0  0
    6.1863    2.1435    1.0018 H   0  0  0  0  0  0  0  0  0  0  0  0
    4.6982    1.7447   -3.0093 H   0  0  0  0  0  0  0  0  0  0  0  0
    6.3256    2.7152   -1.4082 H   0  0  0  0  0  0  0  0  0  0  0  0
  1 10  1  0  0  0  0
  1 11  1  0  0  0  0
  2  9  1  0  0  0  0
  2 23  1  0  0  0  0
  3 11  1  0  0  0  0
  3 41  1  0  0  0  0
  4 15  1  0  0  0  0
  4 18  1  0  0  0  0
  5 16  1  0  0  0  0
  5 26  1  0  0  0  0
  6 22  2  0  0  0  0
  7 23  2  0  0  0  0
  8  9  1  0  0  0  0
  8 11  1  0  0  0  0
  8 12  1  0  0  0  0
  8 32  1  0  0  0  0
  9 10  1  0  0  0  0
  9 33  1  0  0  0  0
 10 13  1  0  0  0  0
 10 14  1  0  0  0  0
 11 34  1  0  0  0  0
 12 15  1  0  0  0  0
 12 16  2  0  0  0  0
 13 35  1  0  0  0  0
 13 36  1  0  0  0  0
 13 37  1  0  0  0  0
 14 38  1  0  0  0  0
 14 39  1  0  0  0  0
 14 40  1  0  0  0  0
 15 17  2  0  0  0  0
 16 19  1  0  0  0  0
 17 21  1  0  0  0  0
 17 22  1  0  0  0  0
 18 20  1  0  0  0  0
 18 24  1  0  0  0  0
 18 42  1  0  0  0  0
 19 21  2  0  0  0  0
 19 43  1  0  0  0  0
 20 22  1  0  0  0  0
 20 44  1  0  0  0  0
 20 45  1  0  0  0  0
 21 46  1  0  0  0  0
 23 25  1  0  0  0  0
 24 27  2  0  0  0  0
 24 28  1  0  0  0  0
 25 47  1  0  0  0  0
 25 48  1  0  0  0  0
 25 49  1  0  0  0  0
 26 50  1  0  0  0  0
 26 51  1  0  0  0  0
 26 52  1  0  0  0  0
 27 29  1  0  0  0  0
 27 53  1  0  0  0  0
 28 30  2  0  0  0  0
 28 54  1  0  0  0  0
 29 31  2  0  0  0  0
 29 55  1  0  0  0  0
 30 31  1  0  0  0  0
 30 56  1  0  0  0  0
 31 57  1  0  0  0  0
M  END
> <PUBCHEM_COMPOUND_CID>
10812337

> <PUBCHEM_CONFORMER_RMSD>
0.8

> <PUBCHEM_CONFORMER_DIVERSEORDER>
1
5
2
8
11
13
9
12
7
6
4
3
10

> <PUBCHEM_MMFF94_PARTIAL_CHARGES>
37
1 -0.56
10 0.28
11 0.56
12 -0.14
15 0.08
16 0.08
17 0.09
18 0.42
19 -0.15
2 -0.43
20 0.06
21 -0.15
22 0.42
23 0.66
24 -0.14
25 0.06
26 0.28
27 -0.15
28 -0.15
29 -0.15
3 -0.68
30 -0.15
31 -0.15
4 -0.36
41 0.4
43 0.15
46 0.15
5 -0.36
53 0.15
54 0.15
55 0.15
56 0.15
57 0.15
6 -0.57
7 -0.57
8 0.14
9 0.28

> <PUBCHEM_EFFECTIVE_ROTOR_COUNT>
6.6

> <PUBCHEM_PHARMACOPHORE_FEATURES>
12
1 1 acceptor
1 3 acceptor
1 3 donor
1 4 acceptor
1 5 acceptor
1 6 acceptor
1 7 acceptor
3 10 13 14 hydrophobe
5 1 8 9 10 11 rings
6 12 15 16 17 19 21 rings
6 24 27 28 29 30 31 rings
6 4 15 17 18 20 22 rings

> <PUBCHEM_HEAVY_ATOM_COUNT>
31

> <PUBCHEM_ATOM_DEF_STEREO_COUNT>
4

> <PUBCHEM_ATOM_UDEF_STEREO_COUNT>
0

> <PUBCHEM_BOND_DEF_STEREO_COUNT>
0

> <PUBCHEM_BOND_UDEF_STEREO_COUNT>
0

> <PUBCHEM_ISOTOPIC_ATOM_COUNT>
0

> <PUBCHEM_COMPONENT_COUNT>
1

> <PUBCHEM_CACTVS_TAUTO_COUNT>
2

> <PUBCHEM_CONFORMER_ID>
00A4FBB100000001

> <PUBCHEM_MMFF94_ENERGY>
122.0223

> <PUBCHEM_FEATURE_SELFOVERLAP>
61.02

> <PUBCHEM_SHAPE_FINGERPRINT>
10006869 2 18128548063585812929
10498660 4 18343024402210851200
10670039 82 18188784950042412908
1100329 8 18049434842701894011
11640471 11 18126287445766652388
12788726 201 18337955700497782626
13140716 1 17829052361378142227
13583140 156 17389114338764149787
13617811 41 18262221297234164557
13965767 371 17822565002820214716
14468879 13 17313659343784991845
14787075 74 18342455916265774025
17980427 23 17909799095605908202
19319366 153 18267572525609896463
20510252 161 18409730702762189474
20600515 1 17833020455972032863
20739085 24 16971117259323825563
20775438 99 16327066834807621718
23558518 356 18196379121678086530
23559900 14 18196359339317365706
283562 15 18116996787239594298
392239 28 18341617069749132385
469060 322 17969519266893477529
474 4 18261388885010171046
5048184 11 18335425638575130020
6034566 193 17823154456726871052
6523845 18 17974608790613174700
70251023 43 17414978438831814295
9981440 41 18187359978309154410

> <PUBCHEM_SHAPE_MULTIPOLES>
596.88
9.19
4.56
2.05
10.92
1.65
-0.24
-4.84
2.97
-1.41
-2.43
-0.71
-1.37
-1.57

> <PUBCHEM_SHAPE_SELFOVERLAP>
1306.747

> <PUBCHEM_SHAPE_VOLUME>
320.6

> <PUBCHEM_COORDINATE_TYPE>
2
5
10

$$$$
