10892015
  -OEChem-03052615003D

 43 45  0     1  0  0  0  0  0999 V2000
    1.2721   -0.4601   -2.4946 O   0  0  0  0  0  0  0  0  0  0  0  0
    1.7342    1.9477   -0.1769 O   0  0  0  0  0  0  0  0  0  0  0  0
    1.3536    1.0622    1.9225 O   0  0  0  0  0  0  0  0  0  0  0  0
   -0.9605   -0.1342    1.8832 O   0  0  0  0  0  0  0  0  0  0  0  0
   -0.2528   -0.2360   -0.3228 N   0  0  0  0  0  0  0  0  0  0  0  0
    1.5183   -1.5841    0.7704 C   0  0  1  0  0  0  0  0  0  0  0  0
    2.7089   -1.8470   -1.1013 C   0  0  1  0  0  0  0  0  0  0  0  0
    1.1609   -0.3169   -0.0427 C   0  0  1  0  0  0  0  0  0  0  0  0
    1.6331   -2.6315   -0.3440 C   0  0  0  0  0  0  0  0  0  0  0  0
    2.0465   -0.4638   -1.3030 C   0  0  2  0  0  0  0  0  0  0  0  0
    2.9783   -1.5335    1.2672 C   0  0  0  0  0  0  0  0  0  0  0  0
    3.7950   -1.7120   -0.0215 C   0  0  0  0  0  0  0  0  0  0  0  0
    1.4206    0.9567    0.7054 C   0  0  0  0  0  0  0  0  0  0  0  0
   -1.2068   -0.1503    0.6800 C   0  0  0  0  0  0  0  0  0  0  0  0
   -2.6212   -0.1009    0.2281 C   0  0  0  0  0  0  0  0  0  0  0  0
    2.0071    3.2261    0.4059 C   0  0  0  0  0  0  0  0  0  0  0  0
    2.3359    4.2104   -0.6963 C   0  0  0  0  0  0  0  0  0  0  0  0
   -3.6068   -0.5697    1.0715 C   0  0  0  0  0  0  0  0  0  0  0  0
   -2.9034    0.4120   -1.0209 C   0  0  0  0  0  0  0  0  0  0  0  0
   -4.9348   -0.5236    0.6469 C   0  0  0  0  0  0  0  0  0  0  0  0
   -4.2313    0.4582   -1.4455 C   0  0  0  0  0  0  0  0  0  0  0  0
   -5.2469   -0.0096   -0.6116 C   0  0  0  0  0  0  0  0  0  0  0  0
    0.8183   -1.8572    1.5622 H   0  0  0  0  0  0  0  0  0  0  0  0
    3.0487   -2.3202   -2.0251 H   0  0  0  0  0  0  0  0  0  0  0  0
    0.7102   -2.7661   -0.9173 H   0  0  0  0  0  0  0  0  0  0  0  0
    1.9822   -3.6064    0.0134 H   0  0  0  0  0  0  0  0  0  0  0  0
    2.8286    0.2947   -1.4147 H   0  0  0  0  0  0  0  0  0  0  0  0
    3.1764   -2.3710    1.9469 H   0  0  0  0  0  0  0  0  0  0  0  0
    3.2451   -0.6158    1.7963 H   0  0  0  0  0  0  0  0  0  0  0  0
    4.4678   -0.8679   -0.2028 H   0  0  0  0  0  0  0  0  0  0  0  0
    4.4010   -2.6232    0.0395 H   0  0  0  0  0  0  0  0  0  0  0  0
   -0.5396   -0.3727   -1.2859 H   0  0  0  0  0  0  0  0  0  0  0  0
    0.9051    0.4350   -2.5951 H   0  0  0  0  0  0  0  0  0  0  0  0
    1.1261    3.5701    0.9592 H   0  0  0  0  0  0  0  0  0  0  0  0
    2.8573    3.1402    1.0917 H   0  0  0  0  0  0  0  0  0  0  0  0
    2.5507    5.2007   -0.2853 H   0  0  0  0  0  0  0  0  0  0  0  0
    3.2037    3.8695   -1.2705 H   0  0  0  0  0  0  0  0  0  0  0  0
    1.5014    4.2928   -1.4006 H   0  0  0  0  0  0  0  0  0  0  0  0
   -3.3800   -0.9776    2.0519 H   0  0  0  0  0  0  0  0  0  0  0  0
   -2.1466    0.8170   -1.6847 H   0  0  0  0  0  0  0  0  0  0  0  0
   -5.7256   -0.8886    1.2958 H   0  0  0  0  0  0  0  0  0  0  0  0
   -4.4758    0.8656   -2.4222 H   0  0  0  0  0  0  0  0  0  0  0  0
   -6.2810    0.0279   -0.9417 H   0  0  0  0  0  0  0  0  0  0  0  0
  1 10  1  0  0  0  0
  1 33  1  0  0  0  0
  2 13  1  0  0  0  0
  2 16  1  0  0  0  0
  3 13  2  0  0  0  0
  4 14  2  0  0  0  0
  5  8  1  0  0  0  0
  5 14  1  0  0  0  0
  5 32  1  0  0  0  0
  6  8  1  0  0  0  0
  6  9  1  0  0  0  0
  6 11  1  0  0  0  0
  6 23  1  0  0  0  0
  7  9  1  0  0  0  0
  7 10  1  0  0  0  0
  7 12  1  0  0  0  0
  7 24  1  0  0  0  0
  8 10  1  0  0  0  0
  8 13  1  0  0  0  0
  9 25  1  0  0  0  0
  9 26  1  0  0  0  0
 10 27  1  0  0  0  0
 11 12  1  0  0  0  0
 11 28  1  0  0  0  0
 11 29  1  0  0  0  0
 12 30  1  0  0  0  0
 12 31  1  0  0  0  0
 14 15  1  0  0  0  0
 15 18  2  0  0  0  0
 15 19  1  0  0  0  0
 16 17  1  0  0  0  0
 16 34  1  0  0  0  0
 16 35  1  0  0  0  0
 17 36  1  0  0  0  0
 17 37  1  0  0  0  0
 17 38  1  0  0  0  0
 18 20  1  0  0  0  0
 18 39  1  0  0  0  0
 19 21  2  0  0  0  0
 19 40  1  0  0  0  0
 20 22  2  0  0  0  0
 20 41  1  0  0  0  0
 21 22  1  0  0  0  0
 21 42  1  0  0  0  0
 22 43  1  0  0  0  0
M  END
> <PUBCHEM_COMPOUND_CID>
10892015

> <PUBCHEM_CONFORMER_RMSD>
0.8

> <PUBCHEM_CONFORMER_DIVERSEORDER>
1
4
9
7
8
5
2
6
3
10

> <PUBCHEM_MMFF94_PARTIAL_CHARGES>
23
1 -0.68
10 0.28
13 0.66
14 0.54
15 0.09
16 0.28
18 -0.15
19 -0.15
2 -0.43
20 -0.15
21 -0.15
22 -0.15
3 -0.57
32 0.37
33 0.4
39 0.15
4 -0.57
40 0.15
41 0.15
42 0.15
43 0.15
5 -0.73
8 0.36

> <PUBCHEM_EFFECTIVE_ROTOR_COUNT>
7

> <PUBCHEM_PHARMACOPHORE_FEATURES>
7
1 1 acceptor
1 1 donor
1 3 acceptor
1 4 acceptor
1 5 donor
6 15 18 19 20 21 22 rings
7 6 7 8 9 10 11 12 rings

> <PUBCHEM_HEAVY_ATOM_COUNT>
22

> <PUBCHEM_ATOM_DEF_STEREO_COUNT>
4

> <PUBCHEM_ATOM_UDEF_STEREO_COUNT>
0

> <PUBCHEM_BOND_DEF_STEREO_COUNT>
0

> <PUBCHEM_BOND_UDEF_STEREO_COUNT>
0

> <PUBCHEM_ISOTOPIC_ATOM_COUNT>
0

> <PUBCHEM_COMPONENT_COUNT>
1

> <PUBCHEM_CACTVS_TAUTO_COUNT>
2

> <PUBCHEM_CONFORMER_ID>
00A632EF00000001

> <PUBCHEM_MMFF94_ENERGY>
78.4817

> <PUBCHEM_FEATURE_SELFOVERLAP>
35.541

> <PUBCHEM_SHAPE_FINGERPRINT>
10369192 42 17829903379257472005
10498660 4 15647053738307983279
10764073 3 16809498108585703840
11405975 8 18410575068395755201
11475781 23 13613963229044501953
11578080 2 17973189458429906425
12707595 3 18336267847075316211
12730499 353 18192725646597180417
13134695 92 18262224517868207838
133893 2 18268733716893959928
13681431 1 18341903952490796192
13911987 19 18190489137226122798
14004458 79 17835252146980914420
14181834 199 17846206765806052096
14863182 85 16415480441348683406
15163728 17 17899998306094898932
15502722 9 18340487871523761657
16945 1 18340784662591285186
17844677 252 18411142429491878257
1813 80 17916598518134129126
18186145 218 18408885118849952563
18785283 64 18261670505995151276
19862831 5 15502384387470563255
20369508 70 18334292046144392395
20559304 39 16845293834634485267
20600515 1 18200041633701882178
20645477 70 18412543228173911251
20671657 53 18268994198022716787
21524375 3 17836364118166462552
21756936 100 16594775848734637428
21860390 5 18335404794751014525
2255824 54 18343305881028588679
23419403 2 17678707130434967044
23559900 14 18335134293868769283
238 59 18340499974530391008
312423 11 17988372520261720593
3286 77 18260546697689558399
46194498 28 18409724063243507549
474 4 18268428112627313256
495365 180 18186515531829890487
5281201 14 18409445874017199565
6049 1 18041000639935364037
6669772 16 18124886900519559660
7364860 26 18410857693685508456
7471813 234 18202280269082070009
7495541 125 18259992573909995115
7615 1 17632585941938613785
81228 2 17764876797032688600
81539 233 18267305524219409416
9841814 1 18334572417340622370
9999458 23 18188488107425023996

> <PUBCHEM_SHAPE_MULTIPOLES>
424.29
8.23
3.13
1.65
12.7
4.19
0.22
-1.58
0.91
-5.25
0.29
-0.11
-0.13
0.53

> <PUBCHEM_SHAPE_SELFOVERLAP>
919.762

> <PUBCHEM_SHAPE_VOLUME>
235.5

> <PUBCHEM_COORDINATE_TYPE>
2
5
10

$$$$
