10915671
  -OEChem-03052615013D

 53 54  0     1  0  0  0  0  0999 V2000
   -1.5491    0.8451    1.2055 S   0  0  0  0  0  0  0  0  0  0  0  0
    4.2394   -0.3534   -0.5974 Si  0  0  0  0  0  0  0  0  0  0  0  0
    2.7954   -0.2322    0.2487 O   0  0  0  0  0  0  0  0  0  0  0  0
   -2.0176   -3.3588   -0.1976 O   0  0  0  0  0  0  0  0  0  0  0  0
   -1.0375    2.1838    0.9964 O   0  0  0  0  0  0  0  0  0  0  0  0
   -1.7159    0.3139    2.5426 O   0  0  0  0  0  0  0  0  0  0  0  0
   -0.6314   -0.2581    0.2768 N   0  0  1  0  0  0  0  0  0  0  0  0
    0.5652   -0.8219    0.8710 C   0  0  1  0  0  0  0  0  0  0  0  0
   -0.6664   -1.6401    0.7655 C   0  0  2  0  0  0  0  0  0  0  0  0
    1.7443   -1.1484   -0.0205 C   0  0  0  0  0  0  0  0  0  0  0  0
   -0.7578   -2.6854   -0.2793 C   0  0  0  0  0  0  0  0  0  0  0  0
    5.4529    0.9820   -0.0664 C   0  0  0  0  0  0  0  0  0  0  0  0
   -3.1053    0.7290    0.3788 C   0  0  0  0  0  0  0  0  0  0  0  0
    3.9171   -0.1466   -2.4423 C   0  0  0  0  0  0  0  0  0  0  0  0
    5.0441   -2.0331   -0.3331 C   0  0  0  0  0  0  0  0  0  0  0  0
    4.8594    2.3814   -0.3421 C   0  0  0  0  0  0  0  0  0  0  0  0
    5.7541    0.8588    1.4440 C   0  0  0  0  0  0  0  0  0  0  0  0
    6.7765    0.8406   -0.8500 C   0  0  0  0  0  0  0  0  0  0  0  0
   -4.0291   -0.2114    0.8030 C   0  0  0  0  0  0  0  0  0  0  0  0
   -3.3745    1.5797   -0.6803 C   0  0  0  0  0  0  0  0  0  0  0  0
   -5.2577   -0.3038    0.1492 C   0  0  0  0  0  0  0  0  0  0  0  0
   -4.6031    1.4873   -1.3341 C   0  0  0  0  0  0  0  0  0  0  0  0
   -5.5448    0.5456   -0.9193 C   0  0  0  0  0  0  0  0  0  0  0  0
   -6.8582    0.4458   -1.6193 C   0  0  0  0  0  0  0  0  0  0  0  0
    0.8421   -0.4355    1.8425 H   0  0  0  0  0  0  0  0  0  0  0  0
   -1.2106   -1.8626    1.6706 H   0  0  0  0  0  0  0  0  0  0  0  0
    1.4552   -1.0932   -1.0773 H   0  0  0  0  0  0  0  0  0  0  0  0
    2.0808   -2.1667    0.2097 H   0  0  0  0  0  0  0  0  0  0  0  0
    0.0181   -3.4427   -0.1277 H   0  0  0  0  0  0  0  0  0  0  0  0
   -0.6617   -2.2820   -1.2931 H   0  0  0  0  0  0  0  0  0  0  0  0
    3.4304    0.8109   -2.6475 H   0  0  0  0  0  0  0  0  0  0  0  0
    4.8486   -0.1926   -3.0131 H   0  0  0  0  0  0  0  0  0  0  0  0
    3.2627   -0.9444   -2.8060 H   0  0  0  0  0  0  0  0  0  0  0  0
    4.3761   -2.8325   -0.6674 H   0  0  0  0  0  0  0  0  0  0  0  0
    5.9759   -2.1182   -0.8991 H   0  0  0  0  0  0  0  0  0  0  0  0
    5.2652   -2.1967    0.7254 H   0  0  0  0  0  0  0  0  0  0  0  0
    3.9129    2.5362    0.1901 H   0  0  0  0  0  0  0  0  0  0  0  0
    5.5492    3.1672   -0.0112 H   0  0  0  0  0  0  0  0  0  0  0  0
    4.6732    2.5476   -1.4097 H   0  0  0  0  0  0  0  0  0  0  0  0
    6.2184   -0.1024    1.6941 H   0  0  0  0  0  0  0  0  0  0  0  0
    4.8460    0.9585    2.0511 H   0  0  0  0  0  0  0  0  0  0  0  0
    6.4477    1.6445    1.7668 H   0  0  0  0  0  0  0  0  0  0  0  0
    6.6334    0.9461   -1.9314 H   0  0  0  0  0  0  0  0  0  0  0  0
    7.4865    1.6200   -0.5466 H   0  0  0  0  0  0  0  0  0  0  0  0
    7.2668   -0.1223   -0.6673 H   0  0  0  0  0  0  0  0  0  0  0  0
   -2.0193   -4.0415   -0.8901 H   0  0  0  0  0  0  0  0  0  0  0  0
   -3.8225   -0.8858    1.6283 H   0  0  0  0  0  0  0  0  0  0  0  0
   -2.6520    2.3142   -1.0224 H   0  0  0  0  0  0  0  0  0  0  0  0
   -5.9832   -1.0417    0.4816 H   0  0  0  0  0  0  0  0  0  0  0  0
   -4.8150    2.1544   -2.1654 H   0  0  0  0  0  0  0  0  0  0  0  0
   -7.5894    1.1054   -1.1416 H   0  0  0  0  0  0  0  0  0  0  0  0
   -6.7666    0.7283   -2.6736 H   0  0  0  0  0  0  0  0  0  0  0  0
   -7.2419   -0.5798   -1.5950 H   0  0  0  0  0  0  0  0  0  0  0  0
  1  5  2  0  0  0  0
  1  6  2  0  0  0  0
  1  7  1  0  0  0  0
  1 13  1  0  0  0  0
  2  3  1  0  0  0  0
  2 12  1  0  0  0  0
  2 14  1  0  0  0  0
  2 15  1  0  0  0  0
  3 10  1  0  0  0  0
  4 11  1  0  0  0  0
  4 46  1  0  0  0  0
  7  8  1  0  0  0  0
  7  9  1  0  0  0  0
  8  9  1  0  0  0  0
  8 10  1  0  0  0  0
  8 25  1  0  0  0  0
  9 11  1  0  0  0  0
  9 26  1  0  0  0  0
 10 27  1  0  0  0  0
 10 28  1  0  0  0  0
 11 29  1  0  0  0  0
 11 30  1  0  0  0  0
 12 16  1  0  0  0  0
 12 17  1  0  0  0  0
 12 18  1  0  0  0  0
 13 19  2  0  0  0  0
 13 20  1  0  0  0  0
 14 31  1  0  0  0  0
 14 32  1  0  0  0  0
 14 33  1  0  0  0  0
 15 34  1  0  0  0  0
 15 35  1  0  0  0  0
 15 36  1  0  0  0  0
 16 37  1  0  0  0  0
 16 38  1  0  0  0  0
 16 39  1  0  0  0  0
 17 40  1  0  0  0  0
 17 41  1  0  0  0  0
 17 42  1  0  0  0  0
 18 43  1  0  0  0  0
 18 44  1  0  0  0  0
 18 45  1  0  0  0  0
 19 21  1  0  0  0  0
 19 47  1  0  0  0  0
 20 22  2  0  0  0  0
 20 48  1  0  0  0  0
 21 23  2  0  0  0  0
 21 49  1  0  0  0  0
 22 23  1  0  0  0  0
 22 50  1  0  0  0  0
 23 24  1  0  0  0  0
 24 51  1  0  0  0  0
 24 52  1  0  0  0  0
 24 53  1  0  0  0  0
M  END
> <PUBCHEM_COMPOUND_CID>
10915671

> <PUBCHEM_CONFORMER_RMSD>
0.8

> <PUBCHEM_CONFORMER_DIVERSEORDER>
1
18
28
55
32
14
22
52
31
64
39
38
11
67
27
62
36
47
65
24
51
8
13
60
54
58
53
6
40
26
61
23
34
7
48
5
56
35
45
66
16
12
57
9
43
37
42
21
15
63
44
41
29
4
17
59
3
2
30
19
50
68
25
10
46
20
49
33

> <PUBCHEM_MMFF94_PARTIAL_CHARGES>
28
1 1.45
10 0.38
11 0.38
12 -0.08
13 -0.01
14 -0.08
15 -0.08
19 -0.15
2 0.54
20 -0.15
21 -0.15
22 -0.15
23 -0.14
24 0.14
25 0.1
26 0.1
3 -0.58
4 -0.68
46 0.4
47 0.15
48 0.15
49 0.15
5 -0.65
50 0.15
6 -0.65
7 -0.6
8 0.04
9 0.04

> <PUBCHEM_EFFECTIVE_ROTOR_COUNT>
7.6

> <PUBCHEM_PHARMACOPHORE_FEATURES>
6
1 4 acceptor
1 4 donor
1 5 acceptor
1 6 acceptor
4 12 16 17 18 hydrophobe
6 13 19 20 21 22 23 rings

> <PUBCHEM_HEAVY_ATOM_COUNT>
24

> <PUBCHEM_ATOM_DEF_STEREO_COUNT>
2

> <PUBCHEM_ATOM_UDEF_STEREO_COUNT>
0

> <PUBCHEM_BOND_DEF_STEREO_COUNT>
0

> <PUBCHEM_BOND_UDEF_STEREO_COUNT>
0

> <PUBCHEM_ISOTOPIC_ATOM_COUNT>
0

> <PUBCHEM_COMPONENT_COUNT>
1

> <PUBCHEM_CACTVS_TAUTO_COUNT>
1

> <PUBCHEM_CONFORMER_ID>
00A68F5700000001

> <PUBCHEM_MMFF94_ENERGY>
47.7915

> <PUBCHEM_FEATURE_SELFOVERLAP>
30.463

> <PUBCHEM_SHAPE_FINGERPRINT>
10498660 4 18411990186825846072
10692045 39 13407073652682448633
11089746 13 16008752433107227612
11128504 68 17418374688268114544
11961588 58 18186793691065384299
12403260 363 18127412250831186282
12760667 363 9223235126282573089
12969540 114 18410847759552539063
13533116 47 18201158750717186942
13583140 156 17895489106330438136
13673619 4 13542458770104934187
13911987 19 18412825781239874785
14251764 18 11963400639227228569
14251764 30 13326847842622585045
14617045 38 14333407852397425661
14767858 380 18131345315344801853
15183329 4 16702301256351854735
15238133 3 15719397222364125852
15537594 2 13973958792310355933
15799311 1 15482682294209370988
173720 79 18113889460099768986
17492 54 18341041957107750403
1813 80 12895066319106485066
19489759 90 17095527296490921873
19958102 18 18342747277593231670
20157964 124 18335419045910885846
20197701 30 18260829280509803707
21403212 168 11963383047204935209
21521721 280 18411703192937466633
22950370 63 14620793786533697793
23227448 37 18337111284051869308
23522609 53 14548193128104104802
23557571 272 18128550438808384558
23559900 14 18201445775007778882
239999 70 12103840151805529966
2767999 5 17676487237384853372
2838139 119 17676759916632610397
33382 64 14261350241258496135
3472631 163 18335421309516887284
351380 3 12607402182911223716
3545911 37 18341620334715398714
3729539 64 18342737425022364529
4325135 7 16487256560547160564
5207 217 18409726275035613387
5283173 99 18412261765797090438
57724786 102 15575287617983067174
59755656 520 17167859798806760866
7237137 82 18270684293640196711
9981440 41 17095247990889330417

> <PUBCHEM_SHAPE_MULTIPOLES>
487.51
17.05
2.43
1.67
1.95
1.29
0.03
-6.72
6.26
0.44
0.16
-0.18
-0.36
0.81

> <PUBCHEM_SHAPE_SELFOVERLAP>
959.764

> <PUBCHEM_SHAPE_VOLUME>
295.7

> <PUBCHEM_COORDINATE_TYPE>
2
5
10

$$$$
