10940562
  -OEChem-03052615003D

 72 76  0     1  0  0  0  0  0999 V2000
    1.6773    2.2999    0.7934 O   0  0  0  0  0  0  0  0  0  0  0  0
   -0.5523    0.6022    0.7806 O   0  0  0  0  0  0  0  0  0  0  0  0
    1.1216    4.6781   -1.0526 O   0  0  0  0  0  0  0  0  0  0  0  0
    5.7330    2.7288    0.1352 O   0  0  0  0  0  0  0  0  0  0  0  0
    6.1785   -1.7970    0.8185 O   0  0  0  0  0  0  0  0  0  0  0  0
   -6.3971    2.4744   -0.2068 O   0  0  0  0  0  0  0  0  0  0  0  0
    0.1030   -3.1837   -4.1764 O   0  0  0  0  0  0  0  0  0  0  0  0
    3.7888    1.4426    0.2626 N   0  0  0  0  0  0  0  0  0  0  0  0
    5.9407    0.4701    0.4748 N   0  0  0  0  0  0  0  0  0  0  0  0
    0.5512    2.5478   -0.0706 C   0  0  1  0  0  0  0  0  0  0  0  0
    1.1017    3.2724   -1.2909 C   0  0  2  0  0  0  0  0  0  0  0  0
    2.5173    2.7523   -1.3880 C   0  0  0  0  0  0  0  0  0  0  0  0
    2.8921    2.5446    0.0704 C   0  0  1  0  0  0  0  0  0  0  0  0
   -0.0803    1.2048   -0.4135 C   0  0  0  0  0  0  0  0  0  0  0  0
   -1.5303   -0.3953    0.5138 C   0  0  0  0  0  0  0  0  0  0  0  0
    3.2511    0.1734    0.4326 C   0  0  0  0  0  0  0  0  0  0  0  0
   -2.8498    0.3840    0.3177 C   0  0  0  0  0  0  0  0  0  0  0  0
   -1.0879   -1.1527   -0.7580 C   0  0  0  0  0  0  0  0  0  0  0  0
   -1.5585   -1.2794    1.7792 C   0  0  0  0  0  0  0  0  0  0  0  0
    5.1872    1.6329    0.2790 C   2  0  0  0  0  0  0  0  0  0  0  0
    3.9749   -0.9372    0.6197 C   0  0  0  0  0  0  0  0  0  0  0  0
   -3.0017    1.6520    0.8788 C   0  0  0  0  0  0  0  0  0  0  0  0
   -0.2032   -2.2267   -0.6587 C   0  0  0  0  0  0  0  0  0  0  0  0
   -3.8901   -0.1817   -0.4197 C   0  0  0  0  0  0  0  0  0  0  0  0
   -1.5723   -0.7612   -2.0062 C   0  0  0  0  0  0  0  0  0  0  0  0
   -2.5177   -2.2841    1.9068 C   0  0  0  0  0  0  0  0  0  0  0  0
   -0.6245   -1.0739    2.7947 C   0  0  0  0  0  0  0  0  0  0  0  0
    5.4569   -0.8175    0.6499 C   0  0  0  0  0  0  0  0  0  0  0  0
    3.3757   -2.2947    0.8007 C   0  0  0  0  0  0  0  0  0  0  0  0
   -4.1938    2.3544    0.7026 C   0  0  0  0  0  0  0  0  0  0  0  0
    0.1970   -2.9091   -1.8074 C   0  0  0  0  0  0  0  0  0  0  0  0
   -5.0823    0.5208   -0.5959 C   0  0  0  0  0  0  0  0  0  0  0  0
   -1.1721   -1.4436   -3.1550 C   0  0  0  0  0  0  0  0  0  0  0  0
   -2.5431   -3.0831    3.0499 C   0  0  0  0  0  0  0  0  0  0  0  0
   -0.6499   -1.8730    3.9377 C   0  0  0  0  0  0  0  0  0  0  0  0
   -5.2341    1.7888   -0.0346 C   0  0  0  0  0  0  0  0  0  0  0  0
   -0.2873   -2.5175   -3.0556 C   0  0  0  0  0  0  0  0  0  0  0  0
   -1.6092   -2.8776    4.0652 C   0  0  0  0  0  0  0  0  0  0  0  0
   -7.4194    1.8373   -0.9716 C   0  0  0  0  0  0  0  0  0  0  0  0
    1.0088   -4.2723   -4.0025 C   0  0  0  0  0  0  0  0  0  0  0  0
   -0.1532    3.1646    0.4977 H   0  0  0  0  0  0  0  0  0  0  0  0
    0.5251    3.1017   -2.2049 H   0  0  0  0  0  0  0  0  0  0  0  0
    2.5274    1.8035   -1.9381 H   0  0  0  0  0  0  0  0  0  0  0  0
    3.2090    3.4388   -1.8863 H   0  0  0  0  0  0  0  0  0  0  0  0
    3.3364    3.4597    0.4799 H   0  0  0  0  0  0  0  0  0  0  0  0
    0.6551    0.5720   -0.9172 H   0  0  0  0  0  0  0  0  0  0  0  0
   -0.8922    1.4643   -1.0988 H   0  0  0  0  0  0  0  0  0  0  0  0
    0.1991    4.9676   -0.9482 H   0  0  0  0  0  0  0  0  0  0  0  0
    2.1775    0.0766    0.4217 H   0  0  0  0  0  0  0  0  0  0  0  0
    6.9505    0.5829    0.4907 H   0  0  0  0  0  0  0  0  0  0  0  0
   -2.2286    2.1152    1.4844 H   0  0  0  0  0  0  0  0  0  0  0  0
    0.1912   -2.5570    0.2955 H   0  0  0  0  0  0  0  0  0  0  0  0
   -3.8377   -1.1889   -0.8235 H   0  0  0  0  0  0  0  0  0  0  0  0
   -2.2096    0.0995   -2.1745 H   0  0  0  0  0  0  0  0  0  0  0  0
   -3.2461   -2.4770    1.1260 H   0  0  0  0  0  0  0  0  0  0  0  0
    0.1480   -0.3129    2.7407 H   0  0  0  0  0  0  0  0  0  0  0  0
    3.8289   -2.8067    1.6561 H   0  0  0  0  0  0  0  0  0  0  0  0
    2.3032   -2.2385    0.9992 H   0  0  0  0  0  0  0  0  0  0  0  0
    3.5328   -2.9053   -0.0938 H   0  0  0  0  0  0  0  0  0  0  0  0
   -4.3091    3.3391    1.1473 H   0  0  0  0  0  0  0  0  0  0  0  0
    0.8865   -3.7330   -1.6583 H   0  0  0  0  0  0  0  0  0  0  0  0
   -5.8541    0.0179   -1.1685 H   0  0  0  0  0  0  0  0  0  0  0  0
   -1.5412   -1.1263   -4.1265 H   0  0  0  0  0  0  0  0  0  0  0  0
   -3.2874   -3.8678    3.1477 H   0  0  0  0  0  0  0  0  0  0  0  0
    0.0788   -1.7153    4.7276 H   0  0  0  0  0  0  0  0  0  0  0  0
   -1.6280   -3.5007    4.9545 H   0  0  0  0  0  0  0  0  0  0  0  0
   -8.2707    2.5248   -1.0092 H   0  0  0  0  0  0  0  0  0  0  0  0
   -7.7708    0.9195   -0.4877 H   0  0  0  0  0  0  0  0  0  0  0  0
   -7.1010    1.6658   -2.0054 H   0  0  0  0  0  0  0  0  0  0  0  0
    1.2116   -4.6859   -4.9958 H   0  0  0  0  0  0  0  0  0  0  0  0
    0.5627   -5.0757   -3.4065 H   0  0  0  0  0  0  0  0  0  0  0  0
    1.9681   -3.9362   -3.5943 H   0  0  0  0  0  0  0  0  0  0  0  0
  1 10  1  0  0  0  0
  1 13  1  0  0  0  0
  2 14  1  0  0  0  0
  2 15  1  0  0  0  0
  3 11  1  0  0  0  0
  3 48  1  0  0  0  0
  4 20  2  0  0  0  0
  5 28  2  0  0  0  0
  6 36  1  0  0  0  0
  6 39  1  0  0  0  0
  7 37  1  0  0  0  0
  7 40  1  0  0  0  0
  8 13  1  0  0  0  0
  8 16  1  0  0  0  0
  8 20  1  0  0  0  0
  9 20  1  0  0  0  0
  9 28  1  0  0  0  0
  9 50  1  0  0  0  0
 10 11  1  0  0  0  0
 10 14  1  0  0  0  0
 10 41  1  0  0  0  0
 11 12  1  0  0  0  0
 11 42  1  0  0  0  0
 12 13  1  0  0  0  0
 12 43  1  0  0  0  0
 12 44  1  0  0  0  0
 13 45  1  0  0  0  0
 14 46  1  0  0  0  0
 14 47  1  0  0  0  0
 15 17  1  0  0  0  0
 15 18  1  0  0  0  0
 15 19  1  0  0  0  0
 16 21  2  0  0  0  0
 16 49  1  0  0  0  0
 17 22  2  0  0  0  0
 17 24  1  0  0  0  0
 18 23  2  0  0  0  0
 18 25  1  0  0  0  0
 19 26  2  0  0  0  0
 19 27  1  0  0  0  0
 21 28  1  0  0  0  0
 21 29  1  0  0  0  0
 22 30  1  0  0  0  0
 22 51  1  0  0  0  0
 23 31  1  0  0  0  0
 23 52  1  0  0  0  0
 24 32  2  0  0  0  0
 24 53  1  0  0  0  0
 25 33  2  0  0  0  0
 25 54  1  0  0  0  0
 26 34  1  0  0  0  0
 26 55  1  0  0  0  0
 27 35  2  0  0  0  0
 27 56  1  0  0  0  0
 29 57  1  0  0  0  0
 29 58  1  0  0  0  0
 29 59  1  0  0  0  0
 30 36  2  0  0  0  0
 30 60  1  0  0  0  0
 31 37  2  0  0  0  0
 31 61  1  0  0  0  0
 32 36  1  0  0  0  0
 32 62  1  0  0  0  0
 33 37  1  0  0  0  0
 33 63  1  0  0  0  0
 34 38  2  0  0  0  0
 34 64  1  0  0  0  0
 35 38  1  0  0  0  0
 35 65  1  0  0  0  0
 38 66  1  0  0  0  0
 39 67  1  0  0  0  0
 39 68  1  0  0  0  0
 39 69  1  0  0  0  0
 40 70  1  0  0  0  0
 40 71  1  0  0  0  0
 40 72  1  0  0  0  0
M  ISO  1  20  14
M  END
> <PUBCHEM_COMPOUND_CID>
10940562

> <PUBCHEM_CONFORMER_RMSD>
1.2

> <PUBCHEM_CONFORMER_DIVERSEORDER>
1
15
14
4
27
7
23
17
28
24
8
13
25
29
18
5
26
6
21
22
9
16
19
20
12
2
11
10
3

> <PUBCHEM_MMFF94_PARTIAL_CHARGES>
55
1 -0.56
10 0.28
11 0.28
13 0.58
14 0.28
15 0.71
16 -0.04
17 -0.14
18 -0.14
19 -0.14
2 -0.56
20 0.69
21 -0.12
22 -0.15
23 -0.15
24 -0.15
25 -0.15
26 -0.15
27 -0.15
28 0.62
29 0.14
3 -0.68
30 -0.15
31 -0.15
32 -0.15
33 -0.15
34 -0.15
35 -0.15
36 0.08
37 0.08
38 -0.15
39 0.28
4 -0.57
40 0.28
48 0.4
49 0.15
5 -0.57
50 0.37
51 0.15
52 0.15
53 0.15
54 0.15
55 0.15
56 0.15
6 -0.36
60 0.15
61 0.15
62 0.15
63 0.15
64 0.15
65 0.15
66 0.15
7 -0.36
8 -0.47
9 -0.49

> <PUBCHEM_EFFECTIVE_ROTOR_COUNT>
10

> <PUBCHEM_PHARMACOPHORE_FEATURES>
14
1 1 acceptor
1 2 acceptor
1 3 acceptor
1 3 donor
1 4 acceptor
1 5 acceptor
1 6 acceptor
1 7 acceptor
1 9 donor
5 1 10 11 12 13 rings
6 17 22 24 30 32 36 rings
6 18 23 25 31 33 37 rings
6 19 26 27 34 35 38 rings
6 8 9 16 20 21 28 rings

> <PUBCHEM_HEAVY_ATOM_COUNT>
40

> <PUBCHEM_ATOM_DEF_STEREO_COUNT>
3

> <PUBCHEM_ATOM_UDEF_STEREO_COUNT>
0

> <PUBCHEM_BOND_DEF_STEREO_COUNT>
0

> <PUBCHEM_BOND_UDEF_STEREO_COUNT>
0

> <PUBCHEM_ISOTOPIC_ATOM_COUNT>
1

> <PUBCHEM_COMPONENT_COUNT>
1

> <PUBCHEM_CACTVS_TAUTO_COUNT>
3

> <PUBCHEM_CONFORMER_ID>
00A6F09200000001

> <PUBCHEM_MMFF94_ENERGY>
159.3696

> <PUBCHEM_FEATURE_SELFOVERLAP>
71.058

> <PUBCHEM_SHAPE_FINGERPRINT>
10032420 55 17254868289554510895
10305334 12 18260263019199557115
11007060 377 17047948396907781312
11421498 54 16745124791277343921
11578080 2 17113608787296328105
12058002 1 18052291451457663977
12107698 1 18336545040338865715
12128747 34 18042413602006873905
12160290 23 15389572037459755039
12422481 6 18053941749395884472
12633046 712 17822577230254223494
12977781 61 18268453286101282143
133893 2 17200266679816765359
1361 2 17987514823213016902
13642711 20 17534597357864394159
14020679 6 17967816054615142323
14028597 1 15913341160872845371
14279260 333 17826498978685497546
14725015 67 17898841349895970602
15219462 58 17536332662143620381
15274700 242 17825077378478901930
15775530 1 18048919331426875075
16090146 7 17203615895145666718
17974551 9 18115594901292343317
19309040 13 17970924468529672980
20511986 3 18271792571501978064
21716022 299 16414078452802427487
25223398 141 17702646891907219815
3493558 16 16409010687371370633
376196 1 18410852183912913337
4073 2 18041562567750334296
44802255 64 17986680461670633092
469060 322 16754659214229801803
497634 4 16519059032321690572
57527306 92 18266725914219644625
57527452 28 17203318979723980431
9981440 41 18202013135549591913

> <PUBCHEM_SHAPE_MULTIPOLES>
772.13
11.69
5.12
3.87
0.66
0.83
-1.5
8.94
1.91
1.01
-1.46
-1.47
-7.1
1.65

> <PUBCHEM_SHAPE_SELFOVERLAP>
1686.765

> <PUBCHEM_SHAPE_VOLUME>
417.8

> <PUBCHEM_COORDINATE_TYPE>
2
5
10

$$$$
