10967584
  -OEChem-03052615013D

 45 45  0     1  0  0  0  0  0999 V2000
    0.2366   -1.5153   -0.1703 O   0  0  0  0  0  0  0  0  0  0  0  0
   -0.9908    1.9069   -0.3431 O   0  0  0  0  0  0  0  0  0  0  0  0
   -1.9542   -2.0431    0.3252 O   0  0  0  0  0  0  0  0  0  0  0  0
   -3.3221    2.2379   -0.7800 O   0  0  0  0  0  0  0  0  0  0  0  0
    1.3589    0.5602    0.2190 C   0  0  0  0  0  0  0  0  0  0  0  0
    1.7711    0.6760   -1.2547 C   0  0  0  0  0  0  0  0  0  0  0  0
    2.4606   -0.1207    1.0425 C   0  0  0  0  0  0  0  0  0  0  0  0
    0.0394   -0.1979    0.3521 C   0  0  1  0  0  0  0  0  0  0  0  0
    3.1152    1.3838   -1.4103 C   0  0  0  0  0  0  0  0  0  0  0  0
    3.8034    0.5887    0.8832 C   0  0  0  0  0  0  0  0  0  0  0  0
    4.2055    0.7096   -0.5834 C   0  0  0  0  0  0  0  0  0  0  0  0
   -1.0554    0.4902   -0.4806 C   0  0  0  0  0  0  0  0  0  0  0  0
   -0.3619   -0.2605    1.8118 C   0  0  0  0  0  0  0  0  0  0  0  0
   -0.8534   -2.3377   -0.1198 C   0  0  0  0  0  0  0  0  0  0  0  0
   -0.5998    0.7799    2.6201 C   0  0  0  0  0  0  0  0  0  0  0  0
   -1.9786    2.5683   -1.1310 C   0  0  0  0  0  0  0  0  0  0  0  0
   -0.4814   -3.6794   -0.7059 C   0  0  0  0  0  0  0  0  0  0  0  0
   -1.6401   -4.6606   -0.6687 C   0  0  0  0  0  0  0  0  0  0  0  0
   -3.7532    2.9136    0.3940 C   0  0  0  0  0  0  0  0  0  0  0  0
    1.2568    1.5827    0.6098 H   0  0  0  0  0  0  0  0  0  0  0  0
    1.8463   -0.3176   -1.7140 H   0  0  0  0  0  0  0  0  0  0  0  0
    1.0375    1.2407   -1.8384 H   0  0  0  0  0  0  0  0  0  0  0  0
    2.2167   -0.1331    2.1102 H   0  0  0  0  0  0  0  0  0  0  0  0
    2.5824   -1.1665    0.7332 H   0  0  0  0  0  0  0  0  0  0  0  0
    3.0147    2.4308   -1.0982 H   0  0  0  0  0  0  0  0  0  0  0  0
    3.4074    1.3927   -2.4665 H   0  0  0  0  0  0  0  0  0  0  0  0
    4.5774    0.0408    1.4325 H   0  0  0  0  0  0  0  0  0  0  0  0
    3.7432    1.5891    1.3293 H   0  0  0  0  0  0  0  0  0  0  0  0
    4.4065   -0.2892   -0.9900 H   0  0  0  0  0  0  0  0  0  0  0  0
    5.1369    1.2811   -0.6648 H   0  0  0  0  0  0  0  0  0  0  0  0
   -2.0558    0.1756   -0.1665 H   0  0  0  0  0  0  0  0  0  0  0  0
   -0.9649    0.2192   -1.5410 H   0  0  0  0  0  0  0  0  0  0  0  0
   -0.4078   -1.2437    2.2776 H   0  0  0  0  0  0  0  0  0  0  0  0
   -0.5479    1.8048    2.2727 H   0  0  0  0  0  0  0  0  0  0  0  0
   -0.8524    0.6152    3.6621 H   0  0  0  0  0  0  0  0  0  0  0  0
   -1.8194    3.6494   -1.0506 H   0  0  0  0  0  0  0  0  0  0  0  0
   -1.8305    2.3013   -2.1834 H   0  0  0  0  0  0  0  0  0  0  0  0
    0.3572   -4.0876   -0.1318 H   0  0  0  0  0  0  0  0  0  0  0  0
   -0.1664   -3.5283   -1.7437 H   0  0  0  0  0  0  0  0  0  0  0  0
   -1.3400   -5.6215   -1.0978 H   0  0  0  0  0  0  0  0  0  0  0  0
   -2.4942   -4.2820   -1.2400 H   0  0  0  0  0  0  0  0  0  0  0  0
   -1.9755   -4.8340    0.3592 H   0  0  0  0  0  0  0  0  0  0  0  0
   -3.1127    2.6572    1.2430 H   0  0  0  0  0  0  0  0  0  0  0  0
   -3.7527    3.9960    0.2343 H   0  0  0  0  0  0  0  0  0  0  0  0
   -4.7747    2.5950    0.6184 H   0  0  0  0  0  0  0  0  0  0  0  0
  1  8  1  0  0  0  0
  1 14  1  0  0  0  0
  2 12  1  0  0  0  0
  2 16  1  0  0  0  0
  3 14  2  0  0  0  0
  4 16  1  0  0  0  0
  4 19  1  0  0  0  0
  5  6  1  0  0  0  0
  5  7  1  0  0  0  0
  5  8  1  0  0  0  0
  5 20  1  0  0  0  0
  6  9  1  0  0  0  0
  6 21  1  0  0  0  0
  6 22  1  0  0  0  0
  7 10  1  0  0  0  0
  7 23  1  0  0  0  0
  7 24  1  0  0  0  0
  8 12  1  0  0  0  0
  8 13  1  0  0  0  0
  9 11  1  0  0  0  0
  9 25  1  0  0  0  0
  9 26  1  0  0  0  0
 10 11  1  0  0  0  0
 10 27  1  0  0  0  0
 10 28  1  0  0  0  0
 11 29  1  0  0  0  0
 11 30  1  0  0  0  0
 12 31  1  0  0  0  0
 12 32  1  0  0  0  0
 13 15  2  0  0  0  0
 13 33  1  0  0  0  0
 14 17  1  0  0  0  0
 15 34  1  0  0  0  0
 15 35  1  0  0  0  0
 16 36  1  0  0  0  0
 16 37  1  0  0  0  0
 17 18  1  0  0  0  0
 17 38  1  0  0  0  0
 17 39  1  0  0  0  0
 18 40  1  0  0  0  0
 18 41  1  0  0  0  0
 18 42  1  0  0  0  0
 19 43  1  0  0  0  0
 19 44  1  0  0  0  0
 19 45  1  0  0  0  0
M  END
> <PUBCHEM_COMPOUND_CID>
10967584

> <PUBCHEM_CONFORMER_RMSD>
1

> <PUBCHEM_CONFORMER_DIVERSEORDER>
1
35
31
13
37
23
15
24
32
25
22
34
28
26
10
30
20
16
17
29
33
36
9
18
27
12
3
21
5
4
11
19
2
7
14
6
8

> <PUBCHEM_MMFF94_PARTIAL_CHARGES>
15
1 -0.43
12 0.28
13 -0.29
14 0.66
15 -0.3
16 0.56
17 0.06
19 0.28
2 -0.56
3 -0.57
33 0.15
34 0.15
35 0.15
4 -0.56
8 0.42

> <PUBCHEM_EFFECTIVE_ROTOR_COUNT>
10.2

> <PUBCHEM_PHARMACOPHORE_FEATURES>
6
1 15 hydrophobe
1 18 hydrophobe
1 2 acceptor
1 3 acceptor
1 4 acceptor
6 5 6 7 9 10 11 rings

> <PUBCHEM_HEAVY_ATOM_COUNT>
19

> <PUBCHEM_ATOM_DEF_STEREO_COUNT>
0

> <PUBCHEM_ATOM_UDEF_STEREO_COUNT>
1

> <PUBCHEM_BOND_DEF_STEREO_COUNT>
0

> <PUBCHEM_BOND_UDEF_STEREO_COUNT>
0

> <PUBCHEM_ISOTOPIC_ATOM_COUNT>
0

> <PUBCHEM_COMPONENT_COUNT>
1

> <PUBCHEM_CACTVS_TAUTO_COUNT>
1

> <PUBCHEM_CONFORMER_ID>
00A75A2000000001

> <PUBCHEM_MMFF94_ENERGY>
41.6618

> <PUBCHEM_FEATURE_SELFOVERLAP>
30.48

> <PUBCHEM_SHAPE_FINGERPRINT>
11833330 49 18120079847813106101
12553582 1 17831019396481242474
12592029 89 18050285860475072210
12788726 201 18189618430752510226
13583140 156 17844506981792554840
13681431 1 17115514497901554898
13955234 65 17835802993938113089
14004458 79 18194125350268197198
14817 1 12229650033687039059
15502722 9 17906732501566672461
15852999 172 18130224865957114958
15906896 17 18114187466162774938
16752209 62 18338790212601255558
16945 1 18267573783708149474
1813 80 17691703589439944934
18785283 64 17975984159020603859
18915476 22 17906754513379371297
19765921 60 17916009175490765345
20600515 1 17407979029181960822
20602899 9 18199757959543250930
20671657 53 17546164563760127030
21452121 199 17118603017479681471
21524375 3 17968658211739829180
22112679 90 17760678114139157782
23419403 2 17413350955437875767
23557571 272 17906151203497060328
23598288 3 18188215398270771298
25222932 49 15464841644360045653
266924 78 17695088603684625737
298252 57 18261384503753528920
458136 41 18124602977005061017
59554788 248 17825372003891442885
59755656 520 17987260866270898696
6438718 38 18114191855783108796
6442390 28 18341616988677587649
7364860 26 17691113847448544917
81228 2 18118112799978188601
84936 31 17764009286394565709

> <PUBCHEM_SHAPE_MULTIPOLES>
367.53
5.5
4.57
1.68
4.57
4.34
-0.97
-3.16
0.98
-7.37
1.8
0.24
-0.6
-0.39

> <PUBCHEM_SHAPE_SELFOVERLAP>
724.487

> <PUBCHEM_SHAPE_VOLUME>
216

> <PUBCHEM_COORDINATE_TYPE>
2
5
10

$$$$
