10967759
  -OEChem-03052615023D

 17 17  0     0  0  0  0  0  0999 V2000
    3.6844    0.7084   -0.1488 I   0  0  0  0  0  0  0  0  0  0  0  0
   -1.9705    0.6680    0.2773 O   0  0  0  0  0  0  0  0  0  0  0  0
   -2.4006   -1.6878    0.1837 O   0  5  0  0  0  0  0  0  0  0  0  0
    0.3744    1.6756    0.1556 N   0  3  0  0  0  0  0  0  0  0  0  0
    0.1261    2.7409    0.2320 N   0  0  0  0  0  0  0  0  0  0  0  0
   -0.2634   -0.8085    0.0694 C   0  0  0  0  0  0  0  0  0  0  0  0
    0.7003    0.2731    0.0546 C   0  0  0  0  0  0  0  0  0  0  0  0
    0.4767   -2.0485   -0.0542 C   0  0  0  0  0  0  0  0  0  0  0  0
    1.9244   -0.2660   -0.0679 C   0  0  0  0  0  0  0  0  0  0  0  0
    1.7763   -1.7169   -0.1355 C   0  0  0  0  0  0  0  0  0  0  0  0
   -1.5911   -0.7020    0.1759 C   0  0  0  0  0  0  0  0  0  0  0  0
   -2.8371    1.1636   -0.7421 C   0  0  0  0  0  0  0  0  0  0  0  0
    0.0765   -3.0489   -0.0781 H   0  0  0  0  0  0  0  0  0  0  0  0
    2.5952   -2.4125   -0.2357 H   0  0  0  0  0  0  0  0  0  0  0  0
   -2.9615    2.2394   -0.5918 H   0  0  0  0  0  0  0  0  0  0  0  0
   -3.8206    0.6884   -0.6758 H   0  0  0  0  0  0  0  0  0  0  0  0
   -2.4000    0.9967   -1.7317 H   0  0  0  0  0  0  0  0  0  0  0  0
  1  9  1  0  0  0  0
  2 11  1  0  0  0  0
  2 12  1  0  0  0  0
  3 11  1  0  0  0  0
  4  5  3  0  0  0  0
  4  7  1  0  0  0  0
  6  7  1  0  0  0  0
  6  8  1  0  0  0  0
  6 11  2  0  0  0  0
  7  9  2  0  0  0  0
  8 10  2  0  0  0  0
  8 13  1  0  0  0  0
  9 10  1  0  0  0  0
 10 14  1  0  0  0  0
 12 15  1  0  0  0  0
 12 16  1  0  0  0  0
 12 17  1  0  0  0  0
M  CHG  2   3  -1   4   1
M  END
> <PUBCHEM_COMPOUND_CID>
10967759

> <PUBCHEM_CONFORMER_RMSD>
0.4

> <PUBCHEM_CONFORMER_DIVERSEORDER>
1
2

> <PUBCHEM_MMFF94_PARTIAL_CHARGES>
13
1 -0.09
10 -0.15
11 -0.07
12 0.28
13 0.15
14 0.15
2 -0.36
3 -0.85
4 1.36
5 -0.49
7 0.13
8 -0.15
9 0.09

> <PUBCHEM_EFFECTIVE_ROTOR_COUNT>
1

> <PUBCHEM_PHARMACOPHORE_FEATURES>
3
1 1 hydrophobe
1 2 acceptor
5 6 7 8 9 10 rings

> <PUBCHEM_HEAVY_ATOM_COUNT>
12

> <PUBCHEM_ATOM_DEF_STEREO_COUNT>
0

> <PUBCHEM_ATOM_UDEF_STEREO_COUNT>
0

> <PUBCHEM_BOND_DEF_STEREO_COUNT>
1

> <PUBCHEM_BOND_UDEF_STEREO_COUNT>
0

> <PUBCHEM_ISOTOPIC_ATOM_COUNT>
0

> <PUBCHEM_COMPONENT_COUNT>
1

> <PUBCHEM_CACTVS_TAUTO_COUNT>
1

> <PUBCHEM_CONFORMER_ID>
00A75ACF00000001

> <PUBCHEM_MMFF94_ENERGY>
56.5668

> <PUBCHEM_FEATURE_SELFOVERLAP>
15.223

> <PUBCHEM_SHAPE_FINGERPRINT>
11206711 2 18337953518612152855
12423570 1 17701268168027895718
12524768 44 18198067979874791471
14325111 11 18409731785547303886
14617773 55 17557420977236927825
16945 1 18050855416172753002
193761 8 17979077081150776738
20588541 1 18408319960771754901
22802520 49 17986132733112957078
2334 1 18410857676516338106
23402539 116 18343013424574649060
23402655 69 18268977727477258301
23526114 1 18412262826654434926
23552423 10 18261961734668511346
23559900 14 18271815649073097876
2748010 2 18412270523214554862
353137 74 18192712250298999176
5084963 1 17914902168981469146
528886 8 18412258428586324586
53812653 166 18342174492222074720

> <PUBCHEM_SHAPE_MULTIPOLES>
237.19
4.59
2.42
0.68
1.44
0.49
-0.06
1.02
-0.56
-0.28
0.07
-0.01
0.07
0.28

> <PUBCHEM_SHAPE_SELFOVERLAP>
476.345

> <PUBCHEM_SHAPE_VOLUME>
143.8

> <PUBCHEM_COORDINATE_TYPE>
2
5
10

$$$$
