109848
  -OEChem-03052615013D

 68 73  0     0  0  0  0  0  0999 V2000
   -6.7007    2.4372   -0.0165 S   0  0  0  0  0  0  0  0  0  0  0  0
    4.9693   -4.1642    0.2447 S   0  0  0  0  0  0  0  0  0  0  0  0
   -7.1383    2.1771    1.5331 O   0  0  0  0  0  0  0  0  0  0  0  0
   -7.1427    3.7724   -0.3735 O   0  0  0  0  0  0  0  0  0  0  0  0
   -7.0850    1.2812   -0.8035 O   0  0  0  0  0  0  0  0  0  0  0  0
    5.2574   -4.7921   -1.2369 O   0  0  0  0  0  0  0  0  0  0  0  0
    6.2381   -3.6549    0.7441 O   0  0  0  0  0  0  0  0  0  0  0  0
    4.2092   -5.1406    1.0092 O   0  0  0  0  0  0  0  0  0  0  0  0
   -6.0102   -0.2364    0.4998 N   0  0  0  0  0  0  0  0  0  0  0  0
   -0.4653    0.5499    0.4545 N   0  0  0  0  0  0  0  0  0  0  0  0
   -0.0222    0.3697   -0.7023 N   0  0  0  0  0  0  0  0  0  0  0  0
    5.5251    1.0869   -0.7349 N   0  0  0  0  0  0  0  0  0  0  0  0
    5.9206    1.3755    0.4171 N   0  0  0  0  0  0  0  0  0  0  0  0
   -4.1033    1.3492    0.2367 C   0  0  0  0  0  0  0  0  0  0  0  0
   -2.6997    1.5306    0.2285 C   0  0  0  0  0  0  0  0  0  0  0  0
   -4.6287    0.0676    0.4681 C   0  0  0  0  0  0  0  0  0  0  0  0
   -4.9399    2.4548    0.0129 C   0  0  0  0  0  0  0  0  0  0  0  0
   -1.8651    0.4248    0.4521 C   0  0  0  0  0  0  0  0  0  0  0  0
   -2.1741    2.8122   -0.0031 C   0  0  0  0  0  0  0  0  0  0  0  0
   -3.7826   -1.0196    0.6885 C   0  0  0  0  0  0  0  0  0  0  0  0
    2.2123   -0.6108   -0.4766 C   0  0  0  0  0  0  0  0  0  0  0  0
   -4.4004    3.7210   -0.2156 C   0  0  0  0  0  0  0  0  0  0  0  0
   -2.4025   -0.8412    0.6806 C   0  0  0  0  0  0  0  0  0  0  0  0
    3.6159   -0.4295   -0.4849 C   0  0  0  0  0  0  0  0  0  0  0  0
   -3.0202    3.8994   -0.2235 C   0  0  0  0  0  0  0  0  0  0  0  0
    1.3757    0.4948   -0.7004 C   0  0  0  0  0  0  0  0  0  0  0  0
    4.4525   -1.5351   -0.2612 C   0  0  0  0  0  0  0  0  0  0  0  0
    3.9130   -2.8012   -0.0326 C   0  0  0  0  0  0  0  0  0  0  0  0
    4.1415    0.8520   -0.7168 C   0  0  0  0  0  0  0  0  0  0  0  0
    1.6867   -1.8923   -0.2448 C   0  0  0  0  0  0  0  0  0  0  0  0
   -6.7345   -1.3971    0.1783 C   0  0  0  0  0  0  0  0  0  0  0  0
    2.5327   -2.9795   -0.0243 C   0  0  0  0  0  0  0  0  0  0  0  0
    1.9152    1.7609   -0.9292 C   0  0  0  0  0  0  0  0  0  0  0  0
    3.2955    1.9392   -0.9373 C   0  0  0  0  0  0  0  0  0  0  0  0
   -6.2609   -2.2716   -0.8035 C   0  0  0  0  0  0  0  0  0  0  0  0
   -7.9321   -1.6835    0.8393 C   0  0  0  0  0  0  0  0  0  0  0  0
   -6.9798   -3.4237   -1.1223 C   0  0  0  0  0  0  0  0  0  0  0  0
   -8.6510   -2.8357    0.5203 C   0  0  0  0  0  0  0  0  0  0  0  0
   -8.1751   -3.7058   -0.4606 C   0  0  0  0  0  0  0  0  0  0  0  0
    7.3061    1.6106    0.3996 C   0  0  0  0  0  0  0  0  0  0  0  0
    7.7854    2.8959    0.1670 C   0  0  0  0  0  0  0  0  0  0  0  0
    8.1882    0.5562    0.6152 C   0  0  0  0  0  0  0  0  0  0  0  0
    9.1607    3.1295    0.1502 C   0  0  0  0  0  0  0  0  0  0  0  0
    9.5633    0.7897    0.5983 C   0  0  0  0  0  0  0  0  0  0  0  0
   10.0497    2.0765    0.3661 C   0  0  0  0  0  0  0  0  0  0  0  0
   -1.1026    2.9959   -0.0112 H   0  0  0  0  0  0  0  0  0  0  0  0
   -4.1577   -2.0151    0.9088 H   0  0  0  0  0  0  0  0  0  0  0  0
   -5.0035    4.6065   -0.3882 H   0  0  0  0  0  0  0  0  0  0  0  0
   -1.7542   -1.6942    0.8642 H   0  0  0  0  0  0  0  0  0  0  0  0
   -2.6001    4.8856   -0.3988 H   0  0  0  0  0  0  0  0  0  0  0  0
   -6.5040    0.3465    1.1689 H   0  0  0  0  0  0  0  0  0  0  0  0
    5.5332   -1.4175   -0.2780 H   0  0  0  0  0  0  0  0  0  0  0  0
    0.6152   -2.0758   -0.2381 H   0  0  0  0  0  0  0  0  0  0  0  0
    2.0902   -3.9575    0.1424 H   0  0  0  0  0  0  0  0  0  0  0  0
    1.2677    2.6161   -1.1050 H   0  0  0  0  0  0  0  0  0  0  0  0
    3.7034    2.9305   -1.1182 H   0  0  0  0  0  0  0  0  0  0  0  0
   -5.3492   -2.0654   -1.3576 H   0  0  0  0  0  0  0  0  0  0  0  0
   -8.3159   -1.0148    1.6058 H   0  0  0  0  0  0  0  0  0  0  0  0
   -6.8545    2.8692    2.1757 H   0  0  0  0  0  0  0  0  0  0  0  0
   -6.6127   -4.0979   -1.8907 H   0  0  0  0  0  0  0  0  0  0  0  0
   -9.5818   -3.0550    1.0353 H   0  0  0  0  0  0  0  0  0  0  0  0
   -8.7358   -4.6018   -0.7102 H   0  0  0  0  0  0  0  0  0  0  0  0
    5.7137   -4.1894   -1.8701 H   0  0  0  0  0  0  0  0  0  0  0  0
    7.0999    3.7222   -0.0011 H   0  0  0  0  0  0  0  0  0  0  0  0
    7.8184   -0.4491    0.7986 H   0  0  0  0  0  0  0  0  0  0  0  0
    9.5392    4.1313   -0.0306 H   0  0  0  0  0  0  0  0  0  0  0  0
   10.2554   -0.0302    0.7665 H   0  0  0  0  0  0  0  0  0  0  0  0
   11.1204    2.2583    0.3533 H   0  0  0  0  0  0  0  0  0  0  0  0
  1  3  1  0  0  0  0
  1  4  2  0  0  0  0
  1  5  2  0  0  0  0
  1 17  1  0  0  0  0
  2  6  1  0  0  0  0
  2  7  2  0  0  0  0
  2  8  2  0  0  0  0
  2 28  1  0  0  0  0
  3 59  1  0  0  0  0
  6 63  1  0  0  0  0
  9 16  1  0  0  0  0
  9 31  1  0  0  0  0
  9 51  1  0  0  0  0
 10 11  2  0  0  0  0
 10 18  1  0  0  0  0
 11 26  1  0  0  0  0
 12 13  2  0  0  0  0
 12 29  1  0  0  0  0
 13 40  1  0  0  0  0
 14 15  1  0  0  0  0
 14 16  2  0  0  0  0
 14 17  1  0  0  0  0
 15 18  2  0  0  0  0
 15 19  1  0  0  0  0
 16 20  1  0  0  0  0
 17 22  2  0  0  0  0
 18 23  1  0  0  0  0
 19 25  2  0  0  0  0
 19 46  1  0  0  0  0
 20 23  2  0  0  0  0
 20 47  1  0  0  0  0
 21 24  1  0  0  0  0
 21 26  2  0  0  0  0
 21 30  1  0  0  0  0
 22 25  1  0  0  0  0
 22 48  1  0  0  0  0
 23 49  1  0  0  0  0
 24 27  1  0  0  0  0
 24 29  2  0  0  0  0
 25 50  1  0  0  0  0
 26 33  1  0  0  0  0
 27 28  2  0  0  0  0
 27 52  1  0  0  0  0
 28 32  1  0  0  0  0
 29 34  1  0  0  0  0
 30 32  2  0  0  0  0
 30 53  1  0  0  0  0
 31 35  2  0  0  0  0
 31 36  1  0  0  0  0
 32 54  1  0  0  0  0
 33 34  2  0  0  0  0
 33 55  1  0  0  0  0
 34 56  1  0  0  0  0
 35 37  1  0  0  0  0
 35 57  1  0  0  0  0
 36 38  2  0  0  0  0
 36 58  1  0  0  0  0
 37 39  2  0  0  0  0
 37 60  1  0  0  0  0
 38 39  1  0  0  0  0
 38 61  1  0  0  0  0
 39 62  1  0  0  0  0
 40 41  2  0  0  0  0
 40 42  1  0  0  0  0
 41 43  1  0  0  0  0
 41 64  1  0  0  0  0
 42 44  2  0  0  0  0
 42 65  1  0  0  0  0
 43 45  2  0  0  0  0
 43 66  1  0  0  0  0
 44 45  1  0  0  0  0
 44 67  1  0  0  0  0
 45 68  1  0  0  0  0
M  END
> <PUBCHEM_COMPOUND_CID>
109848

> <PUBCHEM_CONFORMER_RMSD>
1

> <PUBCHEM_CONFORMER_DIVERSEORDER>
1
16
15
11
5
13
10
7
12
9
3
14
4
2
6
8

> <PUBCHEM_MMFF94_PARTIAL_CHARGES>
64
1 1.49
10 -0.18
11 -0.18
12 -0.18
13 -0.18
16 0.1
17 -0.01
18 0.18
19 -0.15
2 1.49
20 -0.15
22 -0.15
23 -0.15
25 -0.15
26 0.18
27 -0.15
28 -0.01
29 0.18
3 -0.68
30 -0.15
31 0.1
32 -0.15
33 -0.15
34 -0.15
35 -0.15
36 -0.15
37 -0.15
38 -0.15
39 -0.15
4 -0.65
40 0.18
41 -0.15
42 -0.15
43 -0.15
44 -0.15
45 -0.15
46 0.15
47 0.15
48 0.15
49 0.15
5 -0.65
50 0.15
51 0.4
52 0.15
53 0.15
54 0.15
55 0.15
56 0.15
57 0.15
58 0.15
59 0.5
6 -0.68
60 0.15
61 0.15
62 0.15
63 0.5
64 0.15
65 0.15
66 0.15
67 0.15
68 0.15
7 -0.65
8 -0.65
9 -0.6

> <PUBCHEM_EFFECTIVE_ROTOR_COUNT>
8

> <PUBCHEM_PHARMACOPHORE_FEATURES>
16
1 3 acceptor
1 4 acceptor
1 5 acceptor
1 6 acceptor
1 7 acceptor
1 8 acceptor
1 9 cation
1 9 donor
4 1 3 4 5 anion
4 2 6 7 8 anion
6 14 15 16 18 20 23 rings
6 14 15 17 19 22 25 rings
6 21 24 26 29 33 34 rings
6 21 24 27 28 30 32 rings
6 31 35 36 37 38 39 rings
6 40 41 42 43 44 45 rings

> <PUBCHEM_HEAVY_ATOM_COUNT>
45

> <PUBCHEM_ATOM_DEF_STEREO_COUNT>
0

> <PUBCHEM_ATOM_UDEF_STEREO_COUNT>
0

> <PUBCHEM_BOND_DEF_STEREO_COUNT>
0

> <PUBCHEM_BOND_UDEF_STEREO_COUNT>
0

> <PUBCHEM_ISOTOPIC_ATOM_COUNT>
0

> <PUBCHEM_COMPONENT_COUNT>
1

> <PUBCHEM_CACTVS_TAUTO_COUNT>
3

> <PUBCHEM_CONFORMER_ID>
0001AD1800000001

> <PUBCHEM_MMFF94_ENERGY>
163.5871

> <PUBCHEM_FEATURE_SELFOVERLAP>
81.366

> <PUBCHEM_SHAPE_FINGERPRINT>
10050765 1 18338517430495615343
10939801 23 18271242815287417022
12013929 94 18337674230412053584
12202916 173 17749669688237769994
1361 4 18411139117460312679
13692114 37 18335140938785193010
13811026 1 18409729551636672332
14118638 360 18411983563464192075
14394314 77 18413112749527983697
15289351 153 18201718406984606448
15347591 1 18339079276663560090
15890870 6 18339646746321224160
17686467 74 18269552904870476137
19315958 150 18337113367264475640
21130935 74 18339082592357597083
22311459 1 18337674242843170868
24771293 8 18259987084905017068
2851757 15 18410857672917248432
3146121 3 18410570704376991098
335507 130 18338239366413969245
3411729 13 18410292472722814746
4073 2 18334019380298301042
4173938 188 18059011829851374290
44280117 145 18272373126916307069
6691757 9 16443065028016640457
99344 41 18408604760042895420

> <PUBCHEM_SHAPE_MULTIPOLES>
873.66
32.34
6.23
0.95
18.56
4.66
0.02
-2.77
-4.32
-0.22
0.26
-0.29
0.22
-0.46

> <PUBCHEM_SHAPE_SELFOVERLAP>
1934.822

> <PUBCHEM_SHAPE_VOLUME>
466.3

> <PUBCHEM_COORDINATE_TYPE>
2
5
10

$$$$
