3062371
  -OEChem-02172602243D

 27 28  0     0  0  0  0  0  0999 V2000
    3.3838    0.0843    0.0001 O   0  0  0  0  0  0  0  0  0  0  0  0
    0.0418   -2.3410    0.0000 O   0  0  0  0  0  0  0  0  0  0  0  0
   -5.0346    0.5696    0.0017 O   0  0  0  0  0  0  0  0  0  0  0  0
   -0.3421    0.4003   -0.0001 C   0  0  0  0  0  0  0  0  0  0  0  0
    1.0072   -0.1101    0.0003 C   0  0  0  0  0  0  0  0  0  0  0  0
   -1.4859   -0.5013   -0.0005 C   0  0  0  0  0  0  0  0  0  0  0  0
    2.1733    0.8221    0.0002 C   0  0  0  0  0  0  0  0  0  0  0  0
   -2.6902    0.2840   -0.0008 C   0  0  0  0  0  0  0  0  0  0  0  0
   -0.8494    1.6457   -0.0003 C   0  0  0  0  0  0  0  0  0  0  0  0
   -2.3073    1.5722   -0.0006 C   0  0  0  0  0  0  0  0  0  0  0  0
    1.1177   -1.4538    0.0004 C   0  0  0  0  0  0  0  0  0  0  0  0
   -1.2481   -1.8165   -0.0004 C   0  0  0  0  0  0  0  0  0  0  0  0
    4.5205    0.9396    0.0001 C   0  0  0  0  0  0  0  0  0  0  0  0
   -4.0617   -0.1875   -0.0002 C   0  0  0  0  0  0  0  0  0  0  0  0
    5.7751    0.0925    0.0000 C   0  0  0  0  0  0  0  0  0  0  0  0
    2.1377    1.4584    0.8929 H   0  0  0  0  0  0  0  0  0  0  0  0
    2.1376    1.4583   -0.8925 H   0  0  0  0  0  0  0  0  0  0  0  0
   -0.2990    2.5732   -0.0002 H   0  0  0  0  0  0  0  0  0  0  0  0
   -2.9452    2.4421   -0.0003 H   0  0  0  0  0  0  0  0  0  0  0  0
    2.0433   -2.0126    0.0006 H   0  0  0  0  0  0  0  0  0  0  0  0
   -1.9919   -2.5989   -0.0006 H   0  0  0  0  0  0  0  0  0  0  0  0
    4.5049    1.5760   -0.8917 H   0  0  0  0  0  0  0  0  0  0  0  0
    4.5050    1.5760    0.8919 H   0  0  0  0  0  0  0  0  0  0  0  0
   -4.1952   -1.2814   -0.0003 H   0  0  0  0  0  0  0  0  0  0  0  0
    6.6707    0.7200    0.0000 H   0  0  0  0  0  0  0  0  0  0  0  0
    5.8001   -0.5593    0.8796 H   0  0  0  0  0  0  0  0  0  0  0  0
    5.8001   -0.5593   -0.8795 H   0  0  0  0  0  0  0  0  0  0  0  0
  1  7  1  0  0  0  0
  1 13  1  0  0  0  0
  2 11  1  0  0  0  0
  2 12  1  0  0  0  0
  3 14  2  0  0  0  0
  4  5  1  0  0  0  0
  4  6  1  0  0  0  0
  4  9  2  0  0  0  0
  5  7  1  0  0  0  0
  5 11  2  0  0  0  0
  6  8  1  0  0  0  0
  6 12  2  0  0  0  0
  7 16  1  0  0  0  0
  7 17  1  0  0  0  0
  8 10  2  0  0  0  0
  8 14  1  0  0  0  0
  9 10  1  0  0  0  0
  9 18  1  0  0  0  0
 10 19  1  0  0  0  0
 11 20  1  0  0  0  0
 12 21  1  0  0  0  0
 13 15  1  0  0  0  0
 13 22  1  0  0  0  0
 13 23  1  0  0  0  0
 14 24  1  0  0  0  0
 15 25  1  0  0  0  0
 15 26  1  0  0  0  0
 15 27  1  0  0  0  0
M  END
> <PUBCHEM_COMPOUND_CID>
3062371

> <PUBCHEM_CONFORMER_RMSD>
0.6

> <PUBCHEM_CONFORMER_DIVERSEORDER>
1
12
16
18
5
2
6
19
11
3
17
7
4
10
8
14
9
13
15

> <PUBCHEM_MMFF94_PARTIAL_CHARGES>
17
1 -0.56
10 -0.15
11 -0.07
12 -0.07
13 0.28
14 0.5
18 0.15
19 0.15
2 -0.15
20 0.15
21 0.15
24 0.06
3 -0.57
5 -0.14
7 0.42
8 0.01
9 -0.15

> <PUBCHEM_EFFECTIVE_ROTOR_COUNT>
4

> <PUBCHEM_PHARMACOPHORE_FEATURES>
5
1 1 acceptor
1 2 acceptor
1 3 acceptor
5 4 6 8 9 10 rings
6 2 4 5 6 11 12 rings

> <PUBCHEM_HEAVY_ATOM_COUNT>
15

> <PUBCHEM_ATOM_DEF_STEREO_COUNT>
0

> <PUBCHEM_ATOM_UDEF_STEREO_COUNT>
0

> <PUBCHEM_BOND_DEF_STEREO_COUNT>
0

> <PUBCHEM_BOND_UDEF_STEREO_COUNT>
0

> <PUBCHEM_ISOTOPIC_ATOM_COUNT>
0

> <PUBCHEM_COMPONENT_COUNT>
1

> <PUBCHEM_CACTVS_TAUTO_COUNT>
1

> <PUBCHEM_CONFORMER_ID>
002EBA6300000001

> <PUBCHEM_MMFF94_ENERGY>
54.4542

> <PUBCHEM_FEATURE_SELFOVERLAP>
25.47

> <PUBCHEM_SHAPE_FINGERPRINT>
11401426 45 18412542124198361725
12236239 1 17748826336986294276
12346645 44 18341898441852329881
12390115 104 18128833957504180817
13140716 1 18194129740036068329
13214271 11 18408887364917511423
13380535 76 18410577283734223006
13862211 1 18410569612933045439
15042514 8 18265055910575979835
15048467 5 14405191659650231065
15196674 1 18338517421911000965
15536298 74 18270964531613292694
16945 1 18341316852041407145
17846911 113 18411980273450619568
187816 3 17846500339652901200
200 152 16630527345214888204
20279233 1 17917722318213225582
20510252 161 18272090448457554536
20645477 56 18411699928641216344
21267235 1 18409456902828336962
21501502 16 18123469380590495185
21524375 3 18411139130081268934
23402539 116 18342733044023373101
23402655 69 18271237223798530133
23559900 14 18272087258256793312
2748010 2 18193277386633114141
34934 24 18410851024265695663
3545911 37 18411420614249099548
366044 4 18410011043830402882
43471831 8 18335137536136937938
474229 33 18410293622793063083
5104073 3 18337675187445839424
57003041 33 18334569136212617213
57426455 19 18272374182734333609
58051976 378 18412263913317739957
69090 78 18272368693840034214
7364860 26 18197216953796469742

> <PUBCHEM_SHAPE_MULTIPOLES>
291.09
9.13
1.79
0.6
8.41
0.67
0
-2.47
0
-0.5
0
0.01
-0.01
0

> <PUBCHEM_SHAPE_SELFOVERLAP>
621.261

> <PUBCHEM_SHAPE_VOLUME>
162.2

> <PUBCHEM_COORDINATE_TYPE>
2
5
10

$$$$
