5283382
  -OEChem-02172602303D

 53 52  0     0  0  0  0  0  0999 V2000
   -7.8614   -0.1319   -0.3999 O   0  0  0  0  0  0  0  0  0  0  0  0
   -0.2380   -1.9386   -0.4935 C   0  0  0  0  0  0  0  0  0  0  0  0
   -1.1750   -0.9435    0.2002 C   0  0  0  0  0  0  0  0  0  0  0  0
    1.2062   -1.8506    0.0041 C   0  0  0  0  0  0  0  0  0  0  0  0
   -2.6471   -1.0085   -0.2230 C   0  0  0  0  0  0  0  0  0  0  0  0
    2.1146   -2.8550   -0.7139 C   0  0  0  0  0  0  0  0  0  0  0  0
   -3.5866   -0.0454    0.5087 C   0  0  0  0  0  0  0  0  0  0  0  0
    3.5600   -2.8076   -0.2059 C   0  0  0  0  0  0  0  0  0  0  0  0
   -5.0504   -0.1921    0.0804 C   0  0  0  0  0  0  0  0  0  0  0  0
    4.6122    1.7232    1.3013 C   0  0  0  0  0  0  0  0  0  0  0  0
    3.1123    1.9026    1.0283 C   0  0  0  0  0  0  0  0  0  0  0  0
    5.2933    0.6351    0.4622 C   0  0  0  0  0  0  0  0  0  0  0  0
    2.8162    2.3843   -0.3951 C   0  0  0  0  0  0  0  0  0  0  0  0
    4.1960   -1.4588   -0.3807 C   0  0  0  0  0  0  0  0  0  0  0  0
   -5.9684    0.7754    0.8237 C   0  0  0  0  0  0  0  0  0  0  0  0
    4.6610   -0.7156    0.6345 C   0  0  0  0  0  0  0  0  0  0  0  0
    1.3289    2.6509   -0.6367 C   0  0  0  0  0  0  0  0  0  0  0  0
    1.0475    3.2160   -2.0211 C   0  0  0  0  0  0  0  0  0  0  0  0
   -7.4213    0.6600    0.4264 C   0  0  0  0  0  0  0  0  0  0  0  0
   -0.2639   -1.7576   -1.5750 H   0  0  0  0  0  0  0  0  0  0  0  0
   -0.6155   -2.9558   -0.3323 H   0  0  0  0  0  0  0  0  0  0  0  0
   -0.8081    0.0739    0.0237 H   0  0  0  0  0  0  0  0  0  0  0  0
   -1.1189   -1.1078    1.2838 H   0  0  0  0  0  0  0  0  0  0  0  0
    1.5668   -0.8296   -0.1602 H   0  0  0  0  0  0  0  0  0  0  0  0
    1.2339   -2.0361    1.0846 H   0  0  0  0  0  0  0  0  0  0  0  0
   -3.0064   -2.0340   -0.0700 H   0  0  0  0  0  0  0  0  0  0  0  0
   -2.7106   -0.8160   -1.3014 H   0  0  0  0  0  0  0  0  0  0  0  0
    2.0978   -2.6567   -1.7930 H   0  0  0  0  0  0  0  0  0  0  0  0
    1.7248   -3.8701   -0.5712 H   0  0  0  0  0  0  0  0  0  0  0  0
   -3.2551    0.9845    0.3281 H   0  0  0  0  0  0  0  0  0  0  0  0
   -3.5077   -0.2200    1.5887 H   0  0  0  0  0  0  0  0  0  0  0  0
    3.5824   -3.1150    0.8469 H   0  0  0  0  0  0  0  0  0  0  0  0
    4.1546   -3.5442   -0.7592 H   0  0  0  0  0  0  0  0  0  0  0  0
   -5.3826   -1.2223    0.2592 H   0  0  0  0  0  0  0  0  0  0  0  0
   -5.1344   -0.0204   -1.0000 H   0  0  0  0  0  0  0  0  0  0  0  0
    5.1294    2.6758    1.1331 H   0  0  0  0  0  0  0  0  0  0  0  0
    4.7410    1.4855    2.3652 H   0  0  0  0  0  0  0  0  0  0  0  0
    2.7265    2.6452    1.7383 H   0  0  0  0  0  0  0  0  0  0  0  0
    2.5687    0.9737    1.2323 H   0  0  0  0  0  0  0  0  0  0  0  0
    6.3422    0.5622    0.7749 H   0  0  0  0  0  0  0  0  0  0  0  0
    5.3089    0.9320   -0.5927 H   0  0  0  0  0  0  0  0  0  0  0  0
    3.1593    1.6398   -1.1223 H   0  0  0  0  0  0  0  0  0  0  0  0
    3.3825    3.3038   -0.5880 H   0  0  0  0  0  0  0  0  0  0  0  0
    4.2728   -1.0822   -1.3977 H   0  0  0  0  0  0  0  0  0  0  0  0
   -5.6600    1.8093    0.6337 H   0  0  0  0  0  0  0  0  0  0  0  0
   -5.9104    0.5982    1.9032 H   0  0  0  0  0  0  0  0  0  0  0  0
    4.5932   -1.0981    1.6500 H   0  0  0  0  0  0  0  0  0  0  0  0
    0.7677    1.7196   -0.5096 H   0  0  0  0  0  0  0  0  0  0  0  0
    0.9551    3.3563    0.1147 H   0  0  0  0  0  0  0  0  0  0  0  0
    1.5647    4.1695   -2.1669 H   0  0  0  0  0  0  0  0  0  0  0  0
    1.3789    2.5222   -2.8002 H   0  0  0  0  0  0  0  0  0  0  0  0
   -0.0258    3.3867   -2.1506 H   0  0  0  0  0  0  0  0  0  0  0  0
   -8.1004    1.3581    0.9458 H   0  0  0  0  0  0  0  0  0  0  0  0
  1 19  2  0  0  0  0
  2  3  1  0  0  0  0
  2  4  1  0  0  0  0
  2 20  1  0  0  0  0
  2 21  1  0  0  0  0
  3  5  1  0  0  0  0
  3 22  1  0  0  0  0
  3 23  1  0  0  0  0
  4  6  1  0  0  0  0
  4 24  1  0  0  0  0
  4 25  1  0  0  0  0
  5  7  1  0  0  0  0
  5 26  1  0  0  0  0
  5 27  1  0  0  0  0
  6  8  1  0  0  0  0
  6 28  1  0  0  0  0
  6 29  1  0  0  0  0
  7  9  1  0  0  0  0
  7 30  1  0  0  0  0
  7 31  1  0  0  0  0
  8 14  1  0  0  0  0
  8 32  1  0  0  0  0
  8 33  1  0  0  0  0
  9 15  1  0  0  0  0
  9 34  1  0  0  0  0
  9 35  1  0  0  0  0
 10 11  1  0  0  0  0
 10 12  1  0  0  0  0
 10 36  1  0  0  0  0
 10 37  1  0  0  0  0
 11 13  1  0  0  0  0
 11 38  1  0  0  0  0
 11 39  1  0  0  0  0
 12 16  1  0  0  0  0
 12 40  1  0  0  0  0
 12 41  1  0  0  0  0
 13 17  1  0  0  0  0
 13 42  1  0  0  0  0
 13 43  1  0  0  0  0
 14 16  2  0  0  0  0
 14 44  1  0  0  0  0
 15 19  1  0  0  0  0
 15 45  1  0  0  0  0
 15 46  1  0  0  0  0
 16 47  1  0  0  0  0
 17 18  1  0  0  0  0
 17 48  1  0  0  0  0
 17 49  1  0  0  0  0
 18 50  1  0  0  0  0
 18 51  1  0  0  0  0
 18 52  1  0  0  0  0
 19 53  1  0  0  0  0
M  END
> <PUBCHEM_COMPOUND_CID>
5283382

> <PUBCHEM_CONFORMER_RMSD>
1.4

> <PUBCHEM_CONFORMER_DIVERSEORDER>
1
5
84
14
61
65
77
26
60
20
82
44
8
37
47
17
4
24
62
64
19
15
45
67
13
30
74
27
78
55
49
10
2
57
39
73
42
38
58
51
83
6
69
12
28
54
29
75
41
22
71
43
70
76
7
79
18
48
53
63
50
16
21
85
40
25
36
56
66
68
31
59
3
46
9
35
23
80
81
33
52
11
72
32
34

> <PUBCHEM_MMFF94_PARTIAL_CHARGES>
10
1 -0.57
12 0.14
14 -0.29
15 0.06
16 -0.29
19 0.45
44 0.15
47 0.15
53 0.06
8 0.14

> <PUBCHEM_EFFECTIVE_ROTOR_COUNT>
15

> <PUBCHEM_PHARMACOPHORE_FEATURES>
4
1 1 acceptor
1 18 hydrophobe
3 10 12 16 hydrophobe
3 11 13 17 hydrophobe

> <PUBCHEM_HEAVY_ATOM_COUNT>
19

> <PUBCHEM_ATOM_DEF_STEREO_COUNT>
0

> <PUBCHEM_ATOM_UDEF_STEREO_COUNT>
0

> <PUBCHEM_BOND_DEF_STEREO_COUNT>
1

> <PUBCHEM_BOND_UDEF_STEREO_COUNT>
0

> <PUBCHEM_ISOTOPIC_ATOM_COUNT>
0

> <PUBCHEM_COMPONENT_COUNT>
1

> <PUBCHEM_CACTVS_TAUTO_COUNT>
2

> <PUBCHEM_CONFORMER_ID>
00509E3600000001

> <PUBCHEM_MMFF94_ENERGY>
-1.5765

> <PUBCHEM_FEATURE_SELFOVERLAP>
20.309

> <PUBCHEM_SHAPE_FINGERPRINT>
10411042 1 17838903634114831470
10688039 33 17968376732958177204
11186622 174 18410007711405260067
13075007 39 17823153356840300409
13533116 47 18202565068379233809
14170010 4 18409732850677938383
14429380 56 18341881979838725047
14464042 87 17632301142277401713
16760501 71 18411983568160228819
17810953 82 18341332279484930144
18785283 64 18042417995700375909
20157964 124 18272371966563136603
20429552 37 18335419037194513477
21298829 104 18271803570612328544
513532 50 17918005970516952628
5283268 108 18260265222918731988

> <PUBCHEM_SHAPE_MULTIPOLES>
385.14
17.13
3.76
1.16
39.53
0.76
0.25
2.68
-4.48
-5.67
1.55
-0.73
0.94
0.35

> <PUBCHEM_SHAPE_SELFOVERLAP>
700.197

> <PUBCHEM_SHAPE_VOLUME>
244.6

> <PUBCHEM_COORDINATE_TYPE>
2
5
10

$$$$
