12311458
  -OEChem-02172602443D

 61 64  0     1  0  0  0  0  0999 V2000
   -4.2119    1.1548   -1.9482 O   0  0  0  0  0  0  0  0  0  0  0  0
   -5.4454   -1.3049    1.2610 O   0  0  0  0  0  0  0  0  0  0  0  0
   -1.8815    2.2162    0.6138 O   0  0  0  0  0  0  0  0  0  0  0  0
   -2.5921   -1.2026    1.3371 O   0  0  0  0  0  0  0  0  0  0  0  0
   -6.1449    1.8673    1.7901 O   0  5  0  0  0  0  0  0  0  0  0  0
   -6.6842    1.3107   -0.2723 O   0  0  0  0  0  0  0  0  0  0  0  0
    1.7394    1.9073    0.1598 O   0  0  0  0  0  0  0  0  0  0  0  0
    0.4314   -3.0993    0.5161 O   0  0  0  0  0  0  0  0  0  0  0  0
    0.6650    0.7948   -2.1962 O   0  0  0  0  0  0  0  0  0  0  0  0
   -1.1791   -3.3663   -1.7812 O   0  0  0  0  0  0  0  0  0  0  0  0
   -5.9009    1.3767    0.6820 N   0  3  0  0  0  0  0  0  0  0  0  0
   -4.5317    0.8342    0.4672 C   0  0  0  0  0  0  0  0  0  0  0  0
   -3.8594    1.6437   -0.6575 C   0  0  1  0  0  0  0  0  0  0  0  0
   -4.6806   -0.6794    0.2350 C   0  0  1  0  0  0  0  0  0  0  0  0
   -2.3655    1.6587   -0.5600 C   0  0  0  0  0  0  0  0  0  0  0  0
   -3.3507   -1.3621    0.1873 C   0  0  0  0  0  0  0  0  0  0  0  0
   -1.5683    1.1726   -1.5230 C   0  0  0  0  0  0  0  0  0  0  0  0
   -2.9326   -2.0680   -0.8739 C   0  0  0  0  0  0  0  0  0  0  0  0
   -0.0998    1.2251   -1.3411 C   0  0  0  0  0  0  0  0  0  0  0  0
   -1.6012   -2.7145   -0.8335 C   0  0  0  0  0  0  0  0  0  0  0  0
    0.3889    1.8243   -0.0781 C   0  0  0  0  0  0  0  0  0  0  0  0
   -0.8135   -2.5287    0.4068 C   0  0  0  0  0  0  0  0  0  0  0  0
   -0.5206    2.2700    0.7955 C   0  0  0  0  0  0  0  0  0  0  0  0
   -1.3550   -1.7984    1.3879 C   0  0  0  0  0  0  0  0  0  0  0  0
    2.2672    3.1273   -0.3293 C   0  0  0  0  0  0  0  0  0  0  0  0
    1.4365   -2.2192    0.0454 C   0  0  0  0  0  0  0  0  0  0  0  0
    3.7457    3.1579   -0.0755 C   0  0  0  0  0  0  0  0  0  0  0  0
    2.7709   -2.8964    0.1552 C   0  0  0  0  0  0  0  0  0  0  0  0
    4.2378    3.6871    1.1177 C   0  0  0  0  0  0  0  0  0  0  0  0
    3.5247   -2.7674    1.3219 C   0  0  0  0  0  0  0  0  0  0  0  0
    4.6284    2.6568   -1.0325 C   0  0  0  0  0  0  0  0  0  0  0  0
    3.2578   -3.6554   -0.9093 C   0  0  0  0  0  0  0  0  0  0  0  0
    5.6122    3.7155    1.3538 C   0  0  0  0  0  0  0  0  0  0  0  0
    4.7652   -3.3970    1.4241 C   0  0  0  0  0  0  0  0  0  0  0  0
    6.0029    2.6851   -0.7962 C   0  0  0  0  0  0  0  0  0  0  0  0
    4.4983   -4.2850   -0.8068 C   0  0  0  0  0  0  0  0  0  0  0  0
    6.4947    3.2145    0.3970 C   0  0  0  0  0  0  0  0  0  0  0  0
    5.2519   -4.1558    0.3599 C   0  0  0  0  0  0  0  0  0  0  0  0
   -4.0254    1.0153    1.4260 H   0  0  0  0  0  0  0  0  0  0  0  0
   -4.1866    2.6917   -0.6185 H   0  0  0  0  0  0  0  0  0  0  0  0
   -5.2224   -0.8687   -0.7010 H   0  0  0  0  0  0  0  0  0  0  0  0
   -1.9257    0.7307   -2.4449 H   0  0  0  0  0  0  0  0  0  0  0  0
   -3.5305   -2.1876   -1.7695 H   0  0  0  0  0  0  0  0  0  0  0  0
   -5.1778    1.2240   -2.0348 H   0  0  0  0  0  0  0  0  0  0  0  0
   -6.3791   -1.0703    1.1258 H   0  0  0  0  0  0  0  0  0  0  0  0
   -0.2770    2.7232    1.7461 H   0  0  0  0  0  0  0  0  0  0  0  0
   -0.8700   -1.5975    2.3328 H   0  0  0  0  0  0  0  0  0  0  0  0
    1.7914    3.9830    0.1687 H   0  0  0  0  0  0  0  0  0  0  0  0
    2.0775    3.2303   -1.4064 H   0  0  0  0  0  0  0  0  0  0  0  0
    1.4464   -1.2918    0.6340 H   0  0  0  0  0  0  0  0  0  0  0  0
    1.2517   -1.9400   -1.0007 H   0  0  0  0  0  0  0  0  0  0  0  0
    3.5602    4.0782    1.8719 H   0  0  0  0  0  0  0  0  0  0  0  0
    3.1552   -2.1804    2.1586 H   0  0  0  0  0  0  0  0  0  0  0  0
    4.2571    2.2394   -1.9647 H   0  0  0  0  0  0  0  0  0  0  0  0
    2.6789   -3.7652   -1.8224 H   0  0  0  0  0  0  0  0  0  0  0  0
    5.9953    4.1269    2.2830 H   0  0  0  0  0  0  0  0  0  0  0  0
    5.3518   -3.2968    2.3326 H   0  0  0  0  0  0  0  0  0  0  0  0
    6.6902    2.2942   -1.5407 H   0  0  0  0  0  0  0  0  0  0  0  0
    4.8772   -4.8764   -1.6352 H   0  0  0  0  0  0  0  0  0  0  0  0
    7.5648    3.2361    0.5811 H   0  0  0  0  0  0  0  0  0  0  0  0
    6.2176   -4.6463    0.4396 H   0  0  0  0  0  0  0  0  0  0  0  0
  1 13  1  0  0  0  0
  1 44  1  0  0  0  0
  2 14  1  0  0  0  0
  2 45  1  0  0  0  0
  3 15  1  0  0  0  0
  3 23  1  0  0  0  0
  4 16  1  0  0  0  0
  4 24  1  0  0  0  0
  5 11  1  0  0  0  0
  6 11  2  0  0  0  0
  7 21  1  0  0  0  0
  7 25  1  0  0  0  0
  8 22  1  0  0  0  0
  8 26  1  0  0  0  0
  9 19  2  0  0  0  0
 10 20  2  0  0  0  0
 11 12  1  0  0  0  0
 12 13  1  0  0  0  0
 12 14  1  0  0  0  0
 12 39  1  0  0  0  0
 13 15  1  0  0  0  0
 13 40  1  0  0  0  0
 14 16  1  0  0  0  0
 14 41  1  0  0  0  0
 15 17  2  0  0  0  0
 16 18  2  0  0  0  0
 17 19  1  0  0  0  0
 17 42  1  0  0  0  0
 18 20  1  0  0  0  0
 18 43  1  0  0  0  0
 19 21  1  0  0  0  0
 20 22  1  0  0  0  0
 21 23  2  0  0  0  0
 22 24  2  0  0  0  0
 23 46  1  0  0  0  0
 24 47  1  0  0  0  0
 25 27  1  0  0  0  0
 25 48  1  0  0  0  0
 25 49  1  0  0  0  0
 26 28  1  0  0  0  0
 26 50  1  0  0  0  0
 26 51  1  0  0  0  0
 27 29  2  0  0  0  0
 27 31  1  0  0  0  0
 28 30  2  0  0  0  0
 28 32  1  0  0  0  0
 29 33  1  0  0  0  0
 29 52  1  0  0  0  0
 30 34  1  0  0  0  0
 30 53  1  0  0  0  0
 31 35  2  0  0  0  0
 31 54  1  0  0  0  0
 32 36  2  0  0  0  0
 32 55  1  0  0  0  0
 33 37  2  0  0  0  0
 33 56  1  0  0  0  0
 34 38  2  0  0  0  0
 34 57  1  0  0  0  0
 35 37  1  0  0  0  0
 35 58  1  0  0  0  0
 36 38  1  0  0  0  0
 36 59  1  0  0  0  0
 37 60  1  0  0  0  0
 38 61  1  0  0  0  0
M  CHG  2   5  -1  11   1
M  END
> <PUBCHEM_COMPOUND_CID>
12311458

> <PUBCHEM_CONFORMER_RMSD>
1.2

> <PUBCHEM_CONFORMER_DIVERSEORDER>
1
83
35
247
92
45
79
237
107
71
91
27
133
213
207
167
211
210
119
242
43
113
200
19
193
250
146
202
26
178
198
218
47
165
87
137
6
33
154
205
56
93
36
162
61
245
66
214
114
241
171
60
143
187
223
246
28
57
232
151
5
140
177
203
206
59
105
229
224
168
186
89
77
127
249
38
149
112
234
231
100
216
226
161
52
220
181
80
238
39
132
121
248
141
110
204
3
69
4
81
164
192
117
150
14
123
239
138
15
49
82
240
10
169
101
136
144
251
230
160
7
72
217
53
8
40
222
212
233
126
86
153
24
227
236
120
188
199
148
21
129
50
51
111
195
180
183
191
145
235
174
44
125
30
142
158
219
215
32
90
197
243
228
84
179
11
31
244
67
99
95
163
17
131
116
65
221
152
139
156
63
172
25
16
118
194
70
102
122
115
13
103
109
62
73
189
182
97
201
135
134
185
29
159
88
176
184
155
46
225
55
76
96
98
42
74
37
75
124
166
12
58
85
106
157
209
208
130
196
147
68
128
94
54
173
104
34
170
78
20
108
9
48
23
64
22
190
41
175
2
18

> <PUBCHEM_MMFF94_PARTIAL_CHARGES>
54
1 -0.68
10 -0.57
11 0.8
12 0.24
13 0.42
14 0.42
15 -0.06
16 -0.06
17 -0.14
18 -0.14
19 0.54
2 -0.68
20 0.54
21 0.09
22 0.09
23 -0.07
24 -0.07
25 0.42
26 0.42
27 -0.14
28 -0.14
29 -0.15
3 -0.15
30 -0.15
31 -0.15
32 -0.15
33 -0.15
34 -0.15
35 -0.15
36 -0.15
37 -0.15
38 -0.15
4 -0.15
42 0.15
43 0.15
44 0.4
45 0.4
46 0.15
47 0.15
5 -0.52
52 0.15
53 0.15
54 0.15
55 0.15
56 0.15
57 0.15
58 0.15
59 0.15
6 -0.52
60 0.15
61 0.15
7 -0.36
8 -0.36
9 -0.57

> <PUBCHEM_EFFECTIVE_ROTOR_COUNT>
11

> <PUBCHEM_PHARMACOPHORE_FEATURES>
17
1 1 acceptor
1 1 donor
1 10 acceptor
1 2 acceptor
1 2 donor
1 3 acceptor
1 4 acceptor
1 5 acceptor
1 5 anion
1 6 acceptor
1 7 acceptor
1 8 acceptor
1 9 acceptor
6 27 29 31 33 35 37 rings
6 28 30 32 34 36 38 rings
6 3 15 17 19 21 23 rings
6 4 16 18 20 22 24 rings

> <PUBCHEM_HEAVY_ATOM_COUNT>
38

> <PUBCHEM_ATOM_DEF_STEREO_COUNT>
0

> <PUBCHEM_ATOM_UDEF_STEREO_COUNT>
2

> <PUBCHEM_BOND_DEF_STEREO_COUNT>
0

> <PUBCHEM_BOND_UDEF_STEREO_COUNT>
0

> <PUBCHEM_ISOTOPIC_ATOM_COUNT>
0

> <PUBCHEM_COMPONENT_COUNT>
1

> <PUBCHEM_CACTVS_TAUTO_COUNT>
2

> <PUBCHEM_CONFORMER_ID>
00BBDBA200000001

> <PUBCHEM_MMFF94_ENERGY>
97.7118

> <PUBCHEM_FEATURE_SELFOVERLAP>
86.374

> <PUBCHEM_SHAPE_FINGERPRINT>
11135926 11 18337663205020326636
11513181 2 18341327885607422774
12422481 6 17749658684331473764
15264996 163 17686624542136987060
15927050 60 18341330105836112590
16067689 302 18338237167940177895
16112460 7 18267878189293714528
17627616 140 18410290354744970114
20609170 92 18113886166724925893
20642791 35 18341060665964342382
20771845 165 17969766528478071149
21796203 349 17762376559352039746
22223350 30 17969245424411970531
23516275 137 18188789313819363616
23559900 14 18266447724797826920
3027735 51 18193553604770320906
4112364 45 17842306704354240881
5265222 85 17902525010118088300
5385378 56 18338808917141339778
59520647 208 18411981352531708066
6669772 16 18409448098177074389

> <PUBCHEM_SHAPE_MULTIPOLES>
718.35
14.64
7.01
1.56
1.15
3.88
-0.2
-8.29
3.4
-13.76
0.42
0.35
0.01
-0.04

> <PUBCHEM_SHAPE_SELFOVERLAP>
1552.438

> <PUBCHEM_SHAPE_VOLUME>
387.1

> <PUBCHEM_COORDINATE_TYPE>
2
5
10

$$$$
