11016480
  -OEChem-03052615003D

 69 71  0     1  0  0  0  0  0999 V2000
   -3.0054    3.8087    0.7202 S   0  0  0  0  0  0  0  0  0  0  0  0
    1.6275   -0.4788   -0.5185 Si  0  0  0  0  0  0  0  0  0  0  0  0
    0.0396   -0.8549   -0.5054 O   0  0  0  0  0  0  0  0  0  0  0  0
   -3.4763    2.2584    0.9177 O   0  0  0  0  0  0  0  0  0  0  0  0
   -2.8919   -3.4099   -1.1992 O   0  0  0  0  0  0  0  0  0  0  0  0
   -2.9058   -5.0059    0.5870 O   0  0  0  0  0  0  0  0  0  0  0  0
   -4.0200    4.5297   -0.0212 O   0  0  0  0  0  0  0  0  0  0  0  0
   -1.6073    3.8435    0.3418 O   0  0  0  0  0  0  0  0  0  0  0  0
   -2.1838   -0.6974    0.3207 C   0  0  1  0  0  0  0  0  0  0  0  0
   -3.5105   -0.0070    0.1969 C   0  0  2  0  0  0  0  0  0  0  0  0
   -3.1303   -1.0820   -0.7783 C   0  0  2  0  0  0  0  0  0  0  0  0
   -0.9420    0.0510   -0.0231 C   0  0  0  0  0  0  0  0  0  0  0  0
   -3.5440    1.4155   -0.2262 C   0  0  0  0  0  0  0  0  0  0  0  0
   -3.7887   -2.4114   -0.7274 C   0  0  0  0  0  0  0  0  0  0  0  0
    2.5916   -1.6943   -1.7174 C   0  0  0  0  0  0  0  0  0  0  0  0
    1.8943    1.2732   -1.0180 C   0  0  0  0  0  0  0  0  0  0  0  0
    2.3622   -0.6228    1.1721 C   0  0  0  0  0  0  0  0  0  0  0  0
   -3.2636   -4.7173   -0.7644 C   0  0  0  0  0  0  0  0  0  0  0  0
    1.6910   -2.0936   -2.9073 C   0  0  0  0  0  0  0  0  0  0  0  0
    3.0073   -2.9739   -0.9578 C   0  0  0  0  0  0  0  0  0  0  0  0
    3.8618   -1.0064   -2.2646 C   0  0  0  0  0  0  0  0  0  0  0  0
    2.5413    2.1545   -0.1516 C   0  0  0  0  0  0  0  0  0  0  0  0
    3.7169   -0.3547    1.3688 C   0  0  0  0  0  0  0  0  0  0  0  0
    1.4494    1.7194   -2.2625 C   0  0  0  0  0  0  0  0  0  0  0  0
    1.5622   -0.9998    2.2508 C   0  0  0  0  0  0  0  0  0  0  0  0
   -3.1283    4.2798    2.4269 C   0  0  0  0  0  0  0  0  0  0  0  0
    2.7430    3.4820   -0.5294 C   0  0  0  0  0  0  0  0  0  0  0  0
    4.2716   -0.4638    2.6439 C   0  0  0  0  0  0  0  0  0  0  0  0
    1.6513    3.0470   -2.6403 C   0  0  0  0  0  0  0  0  0  0  0  0
    2.1169   -1.1088    3.5260 C   0  0  0  0  0  0  0  0  0  0  0  0
    2.2981    3.9282   -1.7738 C   0  0  0  0  0  0  0  0  0  0  0  0
    3.4717   -0.8408    3.7225 C   0  0  0  0  0  0  0  0  0  0  0  0
   -1.4996   -4.9672    0.7911 C   0  0  0  0  0  0  0  0  0  0  0  0
   -2.0446   -1.3755    1.1537 H   0  0  0  0  0  0  0  0  0  0  0  0
   -4.2709   -0.2345    0.9350 H   0  0  0  0  0  0  0  0  0  0  0  0
   -2.8884   -0.7891   -1.7937 H   0  0  0  0  0  0  0  0  0  0  0  0
   -0.6005    0.5827    0.8743 H   0  0  0  0  0  0  0  0  0  0  0  0
   -1.0893    0.7893   -0.8134 H   0  0  0  0  0  0  0  0  0  0  0  0
   -4.5182    1.6006   -0.6951 H   0  0  0  0  0  0  0  0  0  0  0  0
   -2.8035    1.7005   -0.9767 H   0  0  0  0  0  0  0  0  0  0  0  0
   -4.6783   -2.4103   -1.3670 H   0  0  0  0  0  0  0  0  0  0  0  0
   -4.1091   -2.6420    0.2965 H   0  0  0  0  0  0  0  0  0  0  0  0
    2.2203   -2.7725   -3.5863 H   0  0  0  0  0  0  0  0  0  0  0  0
    1.3801   -1.2240   -3.4961 H   0  0  0  0  0  0  0  0  0  0  0  0
    0.7839   -2.6106   -2.5723 H   0  0  0  0  0  0  0  0  0  0  0  0
    3.4733   -3.6938   -1.6414 H   0  0  0  0  0  0  0  0  0  0  0  0
    3.7383   -2.7733   -0.1679 H   0  0  0  0  0  0  0  0  0  0  0  0
    2.1440   -3.4722   -0.5007 H   0  0  0  0  0  0  0  0  0  0  0  0
    3.6300   -0.1182   -2.8615 H   0  0  0  0  0  0  0  0  0  0  0  0
    4.4082   -1.6914   -2.9251 H   0  0  0  0  0  0  0  0  0  0  0  0
    4.5592   -0.7115   -1.4770 H   0  0  0  0  0  0  0  0  0  0  0  0
   -4.3445   -4.8606   -0.8769 H   0  0  0  0  0  0  0  0  0  0  0  0
   -2.7737   -5.4428   -1.4235 H   0  0  0  0  0  0  0  0  0  0  0  0
    2.8647    1.9050    0.8497 H   0  0  0  0  0  0  0  0  0  0  0  0
    4.3767   -0.0560    0.5608 H   0  0  0  0  0  0  0  0  0  0  0  0
    0.9347    1.0595   -2.9562 H   0  0  0  0  0  0  0  0  0  0  0  0
    0.5065   -1.2293    2.1366 H   0  0  0  0  0  0  0  0  0  0  0  0
   -2.4488    3.6596    3.0146 H   0  0  0  0  0  0  0  0  0  0  0  0
   -2.8418    5.3301    2.5107 H   0  0  0  0  0  0  0  0  0  0  0  0
   -4.1601    4.1468    2.7574 H   0  0  0  0  0  0  0  0  0  0  0  0
    3.2346    4.1726    0.1497 H   0  0  0  0  0  0  0  0  0  0  0  0
    5.3263   -0.2546    2.7975 H   0  0  0  0  0  0  0  0  0  0  0  0
    1.3024    3.3955   -3.6080 H   0  0  0  0  0  0  0  0  0  0  0  0
    1.4950   -1.4052    4.3657 H   0  0  0  0  0  0  0  0  0  0  0  0
    2.4517    4.9627   -2.0665 H   0  0  0  0  0  0  0  0  0  0  0  0
    3.9038   -0.9263    4.7152 H   0  0  0  0  0  0  0  0  0  0  0  0
   -1.2969   -5.2363    1.8312 H   0  0  0  0  0  0  0  0  0  0  0  0
   -1.1088   -3.9609    0.6128 H   0  0  0  0  0  0  0  0  0  0  0  0
   -0.9959   -5.6883    0.1402 H   0  0  0  0  0  0  0  0  0  0  0  0
  1  4  1  0  0  0  0
  1  7  2  0  0  0  0
  1  8  2  0  0  0  0
  1 26  1  0  0  0  0
  2  3  1  0  0  0  0
  2 15  1  0  0  0  0
  2 16  1  0  0  0  0
  2 17  1  0  0  0  0
  3 12  1  0  0  0  0
  4 13  1  0  0  0  0
  5 14  1  0  0  0  0
  5 18  1  0  0  0  0
  6 18  1  0  0  0  0
  6 33  1  0  0  0  0
  9 10  1  0  0  0  0
  9 11  1  0  0  0  0
  9 12  1  0  0  0  0
  9 34  1  0  0  0  0
 10 11  1  0  0  0  0
 10 13  1  0  0  0  0
 10 35  1  0  0  0  0
 11 14  1  0  0  0  0
 11 36  1  0  0  0  0
 12 37  1  0  0  0  0
 12 38  1  0  0  0  0
 13 39  1  0  0  0  0
 13 40  1  0  0  0  0
 14 41  1  0  0  0  0
 14 42  1  0  0  0  0
 15 19  1  0  0  0  0
 15 20  1  0  0  0  0
 15 21  1  0  0  0  0
 16 22  2  0  0  0  0
 16 24  1  0  0  0  0
 17 23  2  0  0  0  0
 17 25  1  0  0  0  0
 18 52  1  0  0  0  0
 18 53  1  0  0  0  0
 19 43  1  0  0  0  0
 19 44  1  0  0  0  0
 19 45  1  0  0  0  0
 20 46  1  0  0  0  0
 20 47  1  0  0  0  0
 20 48  1  0  0  0  0
 21 49  1  0  0  0  0
 21 50  1  0  0  0  0
 21 51  1  0  0  0  0
 22 27  1  0  0  0  0
 22 54  1  0  0  0  0
 23 28  1  0  0  0  0
 23 55  1  0  0  0  0
 24 29  2  0  0  0  0
 24 56  1  0  0  0  0
 25 30  2  0  0  0  0
 25 57  1  0  0  0  0
 26 58  1  0  0  0  0
 26 59  1  0  0  0  0
 26 60  1  0  0  0  0
 27 31  2  0  0  0  0
 27 61  1  0  0  0  0
 28 32  2  0  0  0  0
 28 62  1  0  0  0  0
 29 31  1  0  0  0  0
 29 63  1  0  0  0  0
 30 32  1  0  0  0  0
 30 64  1  0  0  0  0
 31 65  1  0  0  0  0
 32 66  1  0  0  0  0
 33 67  1  0  0  0  0
 33 68  1  0  0  0  0
 33 69  1  0  0  0  0
M  END
> <PUBCHEM_COMPOUND_CID>
11016480

> <PUBCHEM_CONFORMER_RMSD>
1.2

> <PUBCHEM_CONFORMER_DIVERSEORDER>
1
22
4
23
7
20
18
16
19
8
2
9
5
10
15
21
11
14
3
12
13
6
17

> <PUBCHEM_MMFF94_PARTIAL_CHARGES>
43
1 1.38
10 -0.19
11 -0.19
12 0.38
13 0.38
14 0.38
15 -0.08
16 -0.22
17 -0.22
18 0.56
2 0.82
22 -0.15
23 -0.15
24 -0.15
25 -0.15
26 0.11
27 -0.15
28 -0.15
29 -0.15
3 -0.58
30 -0.15
31 -0.15
32 -0.15
33 0.28
34 0.1
35 0.1
36 0.1
4 -0.46
5 -0.56
54 0.15
55 0.15
56 0.15
57 0.15
6 -0.56
61 0.15
62 0.15
63 0.15
64 0.15
65 0.15
66 0.15
7 -0.65
8 -0.65
9 -0.19

> <PUBCHEM_EFFECTIVE_ROTOR_COUNT>
13.6

> <PUBCHEM_PHARMACOPHORE_FEATURES>
7
1 5 acceptor
1 6 acceptor
1 7 acceptor
1 8 acceptor
4 15 19 20 21 hydrophobe
6 16 22 24 27 29 31 rings
6 17 23 25 28 30 32 rings

> <PUBCHEM_HEAVY_ATOM_COUNT>
33

> <PUBCHEM_ATOM_DEF_STEREO_COUNT>
3

> <PUBCHEM_ATOM_UDEF_STEREO_COUNT>
0

> <PUBCHEM_BOND_DEF_STEREO_COUNT>
0

> <PUBCHEM_BOND_UDEF_STEREO_COUNT>
0

> <PUBCHEM_ISOTOPIC_ATOM_COUNT>
0

> <PUBCHEM_COMPONENT_COUNT>
1

> <PUBCHEM_CACTVS_TAUTO_COUNT>
1

> <PUBCHEM_CONFORMER_ID>
00A8192000000001

> <PUBCHEM_MMFF94_ENERGY>
82.816

> <PUBCHEM_FEATURE_SELFOVERLAP>
35.571

> <PUBCHEM_SHAPE_FINGERPRINT>
10032420 55 16961812650979580871
10940486 97 18339092483962510566
11578080 2 17703508779704982672
12058002 1 18054193653591048990
12788726 201 16167788303515610844
13726171 33 17762916746063544787
13965767 371 17472406660957787649
14040221 10 16106102398056869464
14178342 30 18340193112129256627
14784336 7 17829319538720123336
19315092 285 17607500703898590811
19319366 153 17034706969261208830
20600515 1 18338502054982272306
21033648 29 17985258578213643073
2132832 1 18190435299409984309
22121540 332 17415545533845816264
23559900 14 18130793368976852151
3493558 16 16811498365118031026
550186 83 17319602084021982988
5895379 119 18412826863286809772

> <PUBCHEM_SHAPE_MULTIPOLES>
665.97
8.17
7.26
3.32
4.14
0.34
2.08
-0.31
1.95
8.95
-0.85
-4.65
0.09
-3.21

> <PUBCHEM_SHAPE_SELFOVERLAP>
1348.296

> <PUBCHEM_SHAPE_VOLUME>
391.2

> <PUBCHEM_COORDINATE_TYPE>
2
5
10

$$$$
