11025555
  -OEChem-03052615013D

 55 59  0     1  0  0  0  0  0999 V2000
   -2.6008   -1.6084    0.9320 O   0  0  0  0  0  0  0  0  0  0  0  0
   -3.0156    1.6640   -0.3019 O   0  0  0  0  0  0  0  0  0  0  0  0
   -4.8705    0.2939    0.0035 O   0  0  0  0  0  0  0  0  0  0  0  0
   -2.9128   -4.0740   -0.3434 O   0  0  0  0  0  0  0  0  0  0  0  0
   -0.4955   -0.5637    0.4848 N   0  0  0  0  0  0  0  0  0  0  0  0
    4.0072   -0.2058   -0.4232 N   0  0  0  0  0  0  0  0  0  0  0  0
    1.4244   -1.6602    0.2546 N   0  0  0  0  0  0  0  0  0  0  0  0
    0.2562    1.7051    0.0588 N   0  0  0  0  0  0  0  0  0  0  0  0
    2.6510    1.7659   -0.4071 N   0  0  0  0  0  0  0  0  0  0  0  0
   -2.6224    0.3055   -0.4979 C   0  0  1  0  0  0  0  0  0  0  0  0
   -1.9418   -0.3345    0.7324 C   0  0  1  0  0  0  0  0  0  0  0  0
   -3.8916   -0.4760   -0.6967 C   0  0  1  0  0  0  0  0  0  0  0  0
   -3.6342   -1.8125   -0.0428 C   0  0  1  0  0  0  0  0  0  0  0  0
   -4.4452    1.6490   -0.1915 C   0  0  0  0  0  0  0  0  0  0  0  0
   -2.1059    0.4197    2.0569 C   0  0  0  0  0  0  0  0  0  0  0  0
   -3.1401   -2.8571   -1.0352 C   0  0  0  0  0  0  0  0  0  0  0  0
   -4.8901    2.5011    0.9894 C   0  0  0  0  0  0  0  0  0  0  0  0
   -5.0433    2.2059   -1.4863 C   0  0  0  0  0  0  0  0  0  0  0  0
    0.4380    0.3824    0.1884 C   0  0  0  0  0  0  0  0  0  0  0  0
    0.1387   -1.7729    0.5150 C   0  0  0  0  0  0  0  0  0  0  0  0
    5.2199    0.5157   -0.7453 C   0  0  0  0  0  0  0  0  0  0  0  0
    1.6253   -0.3185    0.0485 C   0  0  0  0  0  0  0  0  0  0  0  0
    5.8529    1.0954    0.5136 C   0  0  0  0  0  0  0  0  0  0  0  0
    6.2953   -0.4370   -1.2531 C   0  0  0  0  0  0  0  0  0  0  0  0
    6.6133   -0.0701    1.1419 C   0  0  0  0  0  0  0  0  0  0  0  0
    6.9030   -1.0512    0.0061 C   0  0  0  0  0  0  0  0  0  0  0  0
    2.7608    0.4234   -0.2613 C   0  0  0  0  0  0  0  0  0  0  0  0
    1.4236    2.3152   -0.2403 C   0  0  0  0  0  0  0  0  0  0  0  0
   -1.9889    0.2406   -1.3900 H   0  0  0  0  0  0  0  0  0  0  0  0
   -4.2087   -0.5594   -1.7414 H   0  0  0  0  0  0  0  0  0  0  0  0
   -4.5122   -2.1882    0.4937 H   0  0  0  0  0  0  0  0  0  0  0  0
   -3.1500    0.4147    2.3833 H   0  0  0  0  0  0  0  0  0  0  0  0
   -1.5441   -0.0778    2.8575 H   0  0  0  0  0  0  0  0  0  0  0  0
   -1.7538    1.4540    1.9990 H   0  0  0  0  0  0  0  0  0  0  0  0
   -2.1959   -2.5546   -1.4993 H   0  0  0  0  0  0  0  0  0  0  0  0
   -3.8844   -3.0350   -1.8176 H   0  0  0  0  0  0  0  0  0  0  0  0
   -4.4931    2.1128    1.9310 H   0  0  0  0  0  0  0  0  0  0  0  0
   -4.5330    3.5317    0.8922 H   0  0  0  0  0  0  0  0  0  0  0  0
   -5.9812    2.5062    1.0845 H   0  0  0  0  0  0  0  0  0  0  0  0
   -4.6952    1.6461   -2.3611 H   0  0  0  0  0  0  0  0  0  0  0  0
   -6.1364    2.1433   -1.4751 H   0  0  0  0  0  0  0  0  0  0  0  0
   -4.7441    3.2481   -1.6414 H   0  0  0  0  0  0  0  0  0  0  0  0
   -0.3649   -2.7048    0.7319 H   0  0  0  0  0  0  0  0  0  0  0  0
    5.0184    1.2877   -1.4964 H   0  0  0  0  0  0  0  0  0  0  0  0
    5.1339    1.5332    1.2130 H   0  0  0  0  0  0  0  0  0  0  0  0
    6.5668    1.8809    0.2361 H   0  0  0  0  0  0  0  0  0  0  0  0
    7.0691    0.1301   -1.7855 H   0  0  0  0  0  0  0  0  0  0  0  0
    5.9122   -1.2025   -1.9355 H   0  0  0  0  0  0  0  0  0  0  0  0
    5.9986   -0.5590    1.9066 H   0  0  0  0  0  0  0  0  0  0  0  0
    7.5321    0.2709    1.6298 H   0  0  0  0  0  0  0  0  0  0  0  0
    7.9770   -1.2252   -0.1165 H   0  0  0  0  0  0  0  0  0  0  0  0
    6.4382   -2.0199    0.2233 H   0  0  0  0  0  0  0  0  0  0  0  0
    4.0476   -1.2065   -0.2636 H   0  0  0  0  0  0  0  0  0  0  0  0
   -2.5988   -4.7211   -0.9977 H   0  0  0  0  0  0  0  0  0  0  0  0
    1.3728    3.3917   -0.3643 H   0  0  0  0  0  0  0  0  0  0  0  0
  1 11  1  0  0  0  0
  1 13  1  0  0  0  0
  2 10  1  0  0  0  0
  2 14  1  0  0  0  0
  3 12  1  0  0  0  0
  3 14  1  0  0  0  0
  4 16  1  0  0  0  0
  4 54  1  0  0  0  0
  5 11  1  0  0  0  0
  5 19  1  0  0  0  0
  5 20  1  0  0  0  0
  6 21  1  0  0  0  0
  6 27  1  0  0  0  0
  6 53  1  0  0  0  0
  7 20  2  0  0  0  0
  7 22  1  0  0  0  0
  8 19  2  0  0  0  0
  8 28  1  0  0  0  0
  9 27  1  0  0  0  0
  9 28  2  0  0  0  0
 10 11  1  0  0  0  0
 10 12  1  0  0  0  0
 10 29  1  0  0  0  0
 11 15  1  0  0  0  0
 12 13  1  0  0  0  0
 12 30  1  0  0  0  0
 13 16  1  0  0  0  0
 13 31  1  0  0  0  0
 14 17  1  0  0  0  0
 14 18  1  0  0  0  0
 15 32  1  0  0  0  0
 15 33  1  0  0  0  0
 15 34  1  0  0  0  0
 16 35  1  0  0  0  0
 16 36  1  0  0  0  0
 17 37  1  0  0  0  0
 17 38  1  0  0  0  0
 17 39  1  0  0  0  0
 18 40  1  0  0  0  0
 18 41  1  0  0  0  0
 18 42  1  0  0  0  0
 19 22  1  0  0  0  0
 20 43  1  0  0  0  0
 21 23  1  0  0  0  0
 21 24  1  0  0  0  0
 21 44  1  0  0  0  0
 22 27  2  0  0  0  0
 23 25  1  0  0  0  0
 23 45  1  0  0  0  0
 23 46  1  0  0  0  0
 24 26  1  0  0  0  0
 24 47  1  0  0  0  0
 24 48  1  0  0  0  0
 25 26  1  0  0  0  0
 25 49  1  0  0  0  0
 25 50  1  0  0  0  0
 26 51  1  0  0  0  0
 26 52  1  0  0  0  0
 28 55  1  0  0  0  0
M  END
> <PUBCHEM_COMPOUND_CID>
11025555

> <PUBCHEM_CONFORMER_RMSD>
0.8

> <PUBCHEM_CONFORMER_DIVERSEORDER>
1
15
6
23
33
41
43
12
30
22
29
18
27
45
24
13
38
26
25
16
31
42
11
35
20
32
14
9
10
28
21
34
37
8
36
40
4
19
5
7
39
17
44
3
2

> <PUBCHEM_MMFF94_PARTIAL_CHARGES>
25
1 -0.56
10 0.28
11 0.54
12 0.28
13 0.28
14 0.56
16 0.28
19 0.11
2 -0.56
20 0.04
21 0.37
22 0.23
27 0.41
28 0.47
3 -0.56
4 -0.68
43 0.15
5 0.05
53 0.4
54 0.4
55 0.15
6 -0.87
7 -0.57
8 -0.57
9 -0.62

> <PUBCHEM_EFFECTIVE_ROTOR_COUNT>
6.2

> <PUBCHEM_PHARMACOPHORE_FEATURES>
16
1 1 acceptor
1 2 acceptor
1 3 acceptor
1 4 acceptor
1 4 donor
1 6 cation
1 6 donor
3 14 17 18 hydrophobe
3 5 7 20 cation
3 5 8 19 cation
3 8 9 28 cation
5 1 10 11 12 13 rings
5 2 3 10 12 14 rings
5 21 23 24 25 26 rings
5 5 7 19 20 22 rings
6 8 9 19 22 27 28 rings

> <PUBCHEM_HEAVY_ATOM_COUNT>
28

> <PUBCHEM_ATOM_DEF_STEREO_COUNT>
4

> <PUBCHEM_ATOM_UDEF_STEREO_COUNT>
0

> <PUBCHEM_BOND_DEF_STEREO_COUNT>
0

> <PUBCHEM_BOND_UDEF_STEREO_COUNT>
0

> <PUBCHEM_ISOTOPIC_ATOM_COUNT>
0

> <PUBCHEM_COMPONENT_COUNT>
1

> <PUBCHEM_CACTVS_TAUTO_COUNT>
3

> <PUBCHEM_CONFORMER_ID>
00A83C9300000001

> <PUBCHEM_MMFF94_ENERGY>
76.0067

> <PUBCHEM_FEATURE_SELFOVERLAP>
82.34

> <PUBCHEM_SHAPE_FINGERPRINT>
10165383 225 18341052914007445193
10835480 77 18343014524092265904
10906281 52 18262254222204710440
11315181 36 17490151911125481512
11796584 16 18342458132548240938
11809386 21 18262231235181747851
12293681 160 17559675040978381137
12403259 226 18124312976317729889
12403260 363 18191303977740595596
12616971 3 17095248025201530580
12788726 201 17488182574347568689
14347332 77 18196091264158473399
14466204 15 18333445431050192208
14790565 3 17908430160363045705
14955137 171 11746941966826042022
15021287 119 17095242536244142300
15131766 46 15215306436853908447
15183329 4 18113898252203531980
15196674 1 18336548317425299036
15788980 27 18113341929358209560
1601671 61 18261109652038323140
17093844 174 18409163325171986528
17349148 13 18200042849483211554
17492 89 18050286165428533535
18608769 82 18335144224250006195
20511986 3 18262222357784358290
21033648 29 17846202389498109264
21236236 1 18408322206828465695
21267235 1 18335989757023230843
21279426 13 18409450259183875748
21304303 282 17201942331273846705
21709351 56 18335136522545443572
21756936 100 18131073680745295745
22393880 68 18410848893133722222
23081809 10 17748826341539763486
23198884 109 17988642952635134029
23402539 116 18411135844768676996
23559900 14 18202274836249244784
24771293 8 18262795302834325652
3004659 81 18041002839464905132
32027 91 17772488797990206046
335352 9 18408041801293681661
34934 24 18335981969604036090
350125 39 18337114557402465699
4073 2 18335143128949176970
44062 13 18410857706438509239
5104073 3 18262241126860501208
5283173 99 18341611538300818040
531348 171 18408040697671968786
5385378 56 18117283562258111546
559249 180 18408602552508605650
59755656 215 18338234856613971196
7226269 152 18408606933475838304

> <PUBCHEM_SHAPE_MULTIPOLES>
527.84
15.44
2.94
1.18
22.6
1.71
-0.2
-2.52
1.66
-4.61
0.46
-0.4
-0.16
-0.11

> <PUBCHEM_SHAPE_SELFOVERLAP>
1150.737

> <PUBCHEM_SHAPE_VOLUME>
286.2

> <PUBCHEM_COORDINATE_TYPE>
2
5
10

$$$$
