11036325
  -OEChem-03052615013D

 46 46  0     1  0  0  0  0  0999 V2000
   -3.0170    4.2114   -0.9990 I   0  0  0  0  0  0  0  0  0  0  0  0
   -3.5134   -0.9831   -0.6052 O   0  0  0  0  0  0  0  0  0  0  0  0
   -4.8787   -2.8311    0.0709 O   0  0  0  0  0  0  0  0  0  0  0  0
    5.7442   -2.1255    0.2659 O   0  0  0  0  0  0  0  0  0  0  0  0
   -1.9687    1.5666    0.0323 C   0  0  1  0  0  0  0  0  0  0  0  0
   -0.8797    0.6813    0.6574 C   0  0  1  0  0  0  0  0  0  0  0  0
   -3.2433    1.0232    0.6810 C   0  0  0  0  0  0  0  0  0  0  0  0
   -1.5290   -0.7120    0.7499 C   0  0  0  0  0  0  0  0  0  0  0  0
   -3.0415   -0.4868    0.6440 C   0  0  2  0  0  0  0  0  0  0  0  0
   -1.7783    3.0550    0.2917 C   0  0  0  0  0  0  0  0  0  0  0  0
    0.4068    0.6707   -0.1023 C   0  0  0  0  0  0  0  0  0  0  0  0
    1.5861    1.0353    0.4215 C   0  0  0  0  0  0  0  0  0  0  0  0
    2.8773    1.0303   -0.3443 C   0  0  0  0  0  0  0  0  0  0  0  0
   -3.6894   -2.3986   -0.5893 C   0  0  0  0  0  0  0  0  0  0  0  0
    3.9214    0.1398    0.3336 C   0  0  0  0  0  0  0  0  0  0  0  0
    5.2296    0.1127   -0.4651 C   0  0  0  0  0  0  0  0  0  0  0  0
    6.2758   -0.8068    0.1718 C   0  0  2  0  0  0  0  0  0  0  0  0
    7.5512   -0.8492   -0.6590 C   0  0  0  0  0  0  0  0  0  0  0  0
   -6.0534   -2.3333   -0.5559 C   0  0  0  0  0  0  0  0  0  0  0  0
   -2.0042    1.3714   -1.0496 H   0  0  0  0  0  0  0  0  0  0  0  0
   -0.6983    1.0292    1.6851 H   0  0  0  0  0  0  0  0  0  0  0  0
   -4.1453    1.3314    0.1436 H   0  0  0  0  0  0  0  0  0  0  0  0
   -3.3202    1.3622    1.7214 H   0  0  0  0  0  0  0  0  0  0  0  0
   -1.2785   -1.1624    1.7178 H   0  0  0  0  0  0  0  0  0  0  0  0
   -1.1534   -1.3833   -0.0306 H   0  0  0  0  0  0  0  0  0  0  0  0
   -3.5912   -0.9617    1.4650 H   0  0  0  0  0  0  0  0  0  0  0  0
   -0.7376    3.3392    0.0997 H   0  0  0  0  0  0  0  0  0  0  0  0
   -1.9838    3.3036    1.3390 H   0  0  0  0  0  0  0  0  0  0  0  0
    0.3667    0.3441   -1.1391 H   0  0  0  0  0  0  0  0  0  0  0  0
    1.6311    1.3714    1.4545 H   0  0  0  0  0  0  0  0  0  0  0  0
    2.7159    0.6921   -1.3751 H   0  0  0  0  0  0  0  0  0  0  0  0
    3.2516    2.0595   -0.4008 H   0  0  0  0  0  0  0  0  0  0  0  0
   -3.7202   -2.7418   -1.6296 H   0  0  0  0  0  0  0  0  0  0  0  0
   -2.8388   -2.9008   -0.1168 H   0  0  0  0  0  0  0  0  0  0  0  0
    3.5197   -0.8766    0.4303 H   0  0  0  0  0  0  0  0  0  0  0  0
    4.1215    0.5036    1.3493 H   0  0  0  0  0  0  0  0  0  0  0  0
    5.6320    1.1291   -0.5513 H   0  0  0  0  0  0  0  0  0  0  0  0
    5.0073   -0.2406   -1.4803 H   0  0  0  0  0  0  0  0  0  0  0  0
    6.5047   -0.4618    1.1865 H   0  0  0  0  0  0  0  0  0  0  0  0
    8.2888   -1.5124   -0.1944 H   0  0  0  0  0  0  0  0  0  0  0  0
    7.9939    0.1464   -0.7590 H   0  0  0  0  0  0  0  0  0  0  0  0
    7.3549   -1.2500   -1.6596 H   0  0  0  0  0  0  0  0  0  0  0  0
   -6.0940   -1.2419   -0.4918 H   0  0  0  0  0  0  0  0  0  0  0  0
   -6.0973   -2.6527   -1.6016 H   0  0  0  0  0  0  0  0  0  0  0  0
   -6.9210   -2.7419   -0.0308 H   0  0  0  0  0  0  0  0  0  0  0  0
    6.4183   -2.6841    0.6892 H   0  0  0  0  0  0  0  0  0  0  0  0
  1 10  1  0  0  0  0
  2  9  1  0  0  0  0
  2 14  1  0  0  0  0
  3 14  1  0  0  0  0
  3 19  1  0  0  0  0
  4 17  1  0  0  0  0
  4 46  1  0  0  0  0
  5  6  1  0  0  0  0
  5  7  1  0  0  0  0
  5 10  1  0  0  0  0
  5 20  1  0  0  0  0
  6  8  1  0  0  0  0
  6 11  1  0  0  0  0
  6 21  1  0  0  0  0
  7  9  1  0  0  0  0
  7 22  1  0  0  0  0
  7 23  1  0  0  0  0
  8  9  1  0  0  0  0
  8 24  1  0  0  0  0
  8 25  1  0  0  0  0
  9 26  1  0  0  0  0
 10 27  1  0  0  0  0
 10 28  1  0  0  0  0
 11 12  2  0  0  0  0
 11 29  1  0  0  0  0
 12 13  1  0  0  0  0
 12 30  1  0  0  0  0
 13 15  1  0  0  0  0
 13 31  1  0  0  0  0
 13 32  1  0  0  0  0
 14 33  1  0  0  0  0
 14 34  1  0  0  0  0
 15 16  1  0  0  0  0
 15 35  1  0  0  0  0
 15 36  1  0  0  0  0
 16 17  1  0  0  0  0
 16 37  1  0  0  0  0
 16 38  1  0  0  0  0
 17 18  1  0  0  0  0
 17 39  1  0  0  0  0
 18 40  1  0  0  0  0
 18 41  1  0  0  0  0
 18 42  1  0  0  0  0
 19 43  1  0  0  0  0
 19 44  1  0  0  0  0
 19 45  1  0  0  0  0
M  END
> <PUBCHEM_COMPOUND_CID>
11036325

> <PUBCHEM_CONFORMER_RMSD>
1

> <PUBCHEM_CONFORMER_DIVERSEORDER>
1
47
28
37
50
49
30
20
64
44
38
39
6
40
26
52
62
66
42
18
46
36
31
22
19
54
57
67
69
68
34
21
23
51
16
45
11
7
55
60
13
25
53
4
14
32
56
12
29
24
70
33
5
35
43
41
58
48
9
63
3
8
15
2
27
59
61
10
65
17

> <PUBCHEM_MMFF94_PARTIAL_CHARGES>
16
1 -0.19
10 0.19
11 -0.29
12 -0.29
13 0.14
14 0.56
17 0.28
19 0.28
2 -0.56
29 0.15
3 -0.56
30 0.15
4 -0.68
46 0.4
6 0.14
9 0.28

> <PUBCHEM_EFFECTIVE_ROTOR_COUNT>
10

> <PUBCHEM_PHARMACOPHORE_FEATURES>
7
1 1 hydrophobe
1 2 acceptor
1 3 acceptor
1 4 acceptor
1 4 donor
4 12 13 15 16 hydrophobe
5 5 6 7 8 9 rings

> <PUBCHEM_HEAVY_ATOM_COUNT>
19

> <PUBCHEM_ATOM_DEF_STEREO_COUNT>
4

> <PUBCHEM_ATOM_UDEF_STEREO_COUNT>
0

> <PUBCHEM_BOND_DEF_STEREO_COUNT>
1

> <PUBCHEM_BOND_UDEF_STEREO_COUNT>
0

> <PUBCHEM_ISOTOPIC_ATOM_COUNT>
0

> <PUBCHEM_COMPONENT_COUNT>
1

> <PUBCHEM_CACTVS_TAUTO_COUNT>
1

> <PUBCHEM_CONFORMER_ID>
00A866A500000001

> <PUBCHEM_MMFF94_ENERGY>
35.9069

> <PUBCHEM_FEATURE_SELFOVERLAP>
35.553

> <PUBCHEM_SHAPE_FINGERPRINT>
10411042 1 18338236102376006825
10595046 47 18335144202828053428
11545043 162 18130501960299526280
11796584 16 18196652896469031522
11809386 21 18334852788579569370
12403259 226 18341889744370073472
12596602 18 17704073993644051074
12760667 363 18272650190529276359
12916754 54 18341614857941636672
13288520 33 18413390951427637635
13533116 47 18269273637559306624
14347332 77 18408602565324799348
14508225 48 18335977679580943797
15042514 8 18411702097726411953
16087824 20 18337107862403837973
17539 30 18410284814348337509
17844677 252 18410301290032827696
18643901 69 18343592840815693079
18927931 339 18410020922218039518
21033648 29 12396588494086713366
21267235 1 18338239370624988915
21426921 1 18410011009703117293
21703447 108 18266164197222797216
220451 1 18338246955895527016
22224240 67 9583254859560758535
23081809 10 17603592886062051056
23402539 116 18410292532087582781
23559900 14 18341039796328315720
23622692 118 18409731785415688620
3004659 81 18114737243456955762
4214541 1 18335987459253086032
5104073 3 17846781832041648760
531348 171 18263081011798612976
559249 180 18341895190852431843
57262259 84 18335692876083654613
5924683 9 18412545392494413600
59755656 520 18191861224363323573
6327066 14 17608085369302399253
76465 3 18341613762719188040
77188 2 18194964265415437381
7970288 3 18196369445090823447

> <PUBCHEM_SHAPE_MULTIPOLES>
385.34
16.34
4.13
0.91
32.46
2.58
-0.06
-12.5
-3.61
-9.48
-1.33
-0.39
0.19
-0.16

> <PUBCHEM_SHAPE_SELFOVERLAP>
722.243

> <PUBCHEM_SHAPE_VOLUME>
243.8

> <PUBCHEM_COORDINATE_TYPE>
2
5
10

$$$$
