11033280
  -OEChem-03052615003D

 25 26  0     0  0  0  0  0  0999 V2000
    3.7500   -2.2077    0.7122 Br  0  0  0  0  0  0  0  0  0  0  0  0
    1.1904   -1.8821   -0.9482 O   0  0  0  0  0  0  0  0  0  0  0  0
    0.5382    2.6998   -0.2978 O   0  0  0  0  0  0  0  0  0  0  0  0
    0.7742    0.3912   -0.6149 N   0  0  0  0  0  0  0  0  0  0  0  0
    2.3231    1.6363    0.6492 N   0  0  0  0  0  0  0  0  0  0  0  0
   -0.4447    0.3287   -1.4137 C   0  0  0  0  0  0  0  0  0  0  0  0
   -1.6502    0.0147   -0.5756 C   0  0  0  0  0  0  0  0  0  0  0  0
    1.5020   -0.8016   -0.4491 C   0  0  0  0  0  0  0  0  0  0  0  0
    1.1596    1.6525   -0.1036 C   0  0  0  0  0  0  0  0  0  0  0  0
   -2.3826    1.0516   -0.0090 C   0  0  0  0  0  0  0  0  0  0  0  0
   -2.0223   -1.3094   -0.3746 C   0  0  0  0  0  0  0  0  0  0  0  0
    2.7287   -0.6817    0.3923 C   0  0  0  0  0  0  0  0  0  0  0  0
    3.0613    0.5141    0.8837 C   0  0  0  0  0  0  0  0  0  0  0  0
   -3.5026    0.7601    0.7695 C   0  0  0  0  0  0  0  0  0  0  0  0
   -3.1425   -1.6006    0.4038 C   0  0  0  0  0  0  0  0  0  0  0  0
   -3.8826   -0.5658    0.9758 C   0  0  0  0  0  0  0  0  0  0  0  0
   -0.3333   -0.4271   -2.2013 H   0  0  0  0  0  0  0  0  0  0  0  0
   -0.5951    1.2808   -1.9379 H   0  0  0  0  0  0  0  0  0  0  0  0
   -2.1033    2.0892   -0.1658 H   0  0  0  0  0  0  0  0  0  0  0  0
   -1.4624   -2.1263   -0.8198 H   0  0  0  0  0  0  0  0  0  0  0  0
    2.6527    2.5086    1.0522 H   0  0  0  0  0  0  0  0  0  0  0  0
    3.9415    0.6701    1.4970 H   0  0  0  0  0  0  0  0  0  0  0  0
   -4.0799    1.5658    1.2137 H   0  0  0  0  0  0  0  0  0  0  0  0
   -3.4398   -2.6330    0.5630 H   0  0  0  0  0  0  0  0  0  0  0  0
   -4.7553   -0.7927    1.5812 H   0  0  0  0  0  0  0  0  0  0  0  0
  1 12  1  0  0  0  0
  2  8  2  0  0  0  0
  3  9  2  0  0  0  0
  4  6  1  0  0  0  0
  4  8  1  0  0  0  0
  4  9  1  0  0  0  0
  5  9  1  0  0  0  0
  5 13  1  0  0  0  0
  5 21  1  0  0  0  0
  6  7  1  0  0  0  0
  6 17  1  0  0  0  0
  6 18  1  0  0  0  0
  7 10  2  0  0  0  0
  7 11  1  0  0  0  0
  8 12  1  0  0  0  0
 10 14  1  0  0  0  0
 10 19  1  0  0  0  0
 11 15  2  0  0  0  0
 11 20  1  0  0  0  0
 12 13  2  0  0  0  0
 13 22  1  0  0  0  0
 14 16  2  0  0  0  0
 14 23  1  0  0  0  0
 15 16  1  0  0  0  0
 15 24  1  0  0  0  0
 16 25  1  0  0  0  0
M  END
> <PUBCHEM_COMPOUND_CID>
11033280

> <PUBCHEM_CONFORMER_RMSD>
0.6

> <PUBCHEM_CONFORMER_DIVERSEORDER>
1
8
7
9
4
6
5
2
3

> <PUBCHEM_MMFF94_PARTIAL_CHARGES>
23
1 -0.11
10 -0.15
11 -0.15
12 0.12
13 -0.04
14 -0.15
15 -0.15
16 -0.15
19 0.15
2 -0.57
20 0.15
21 0.37
22 0.15
23 0.15
24 0.15
25 0.15
3 -0.57
4 -0.42
5 -0.54
6 0.44
7 -0.14
8 0.62
9 0.69

> <PUBCHEM_EFFECTIVE_ROTOR_COUNT>
2

> <PUBCHEM_PHARMACOPHORE_FEATURES>
6
1 1 hydrophobe
1 2 acceptor
1 3 acceptor
1 5 donor
6 4 5 8 9 12 13 rings
6 7 10 11 14 15 16 rings

> <PUBCHEM_HEAVY_ATOM_COUNT>
16

> <PUBCHEM_ATOM_DEF_STEREO_COUNT>
0

> <PUBCHEM_ATOM_UDEF_STEREO_COUNT>
0

> <PUBCHEM_BOND_DEF_STEREO_COUNT>
0

> <PUBCHEM_BOND_UDEF_STEREO_COUNT>
0

> <PUBCHEM_ISOTOPIC_ATOM_COUNT>
0

> <PUBCHEM_COMPONENT_COUNT>
1

> <PUBCHEM_CACTVS_TAUTO_COUNT>
3

> <PUBCHEM_CONFORMER_ID>
00A85AC000000001

> <PUBCHEM_MMFF94_ENERGY>
34.3396

> <PUBCHEM_FEATURE_SELFOVERLAP>
30.446

> <PUBCHEM_SHAPE_FINGERPRINT>
10498660 4 11959734833132465283
10764073 3 9865605888628876910
1100329 8 15744442623770367251
11086676 242 18341887451368480208
11471102 22 18410290350054143128
12251169 10 18339643442361790487
12382932 28 18340765953360069019
12633257 1 18342184319339415227
12696612 119 18339645641205802109
13296908 3 18114456786418934902
13533116 47 18335985384841852667
13693222 15 18337673130552162163
13705890 14 12323959089124209770
13764800 53 14548746161468577775
15375462 189 18041277656388109090
15527383 91 18341613681373278930
15653759 3 18333731303793351857
15775835 57 17274261776345499673
16945 1 18192142913581152118
17804303 29 18335710390448298639
17841504 4 18408884061570462233
1813 80 17385726859618944126
200 152 18059559335450201463
20281475 54 18186241735906805438
20361792 2 16153707656651481375
20559304 39 18339371871537732829
21061003 4 18339353068128557086
21501502 16 18339928224547702183
22445834 79 18338236088958354935
23419403 2 12134461125210969572
23463225 33 18410855481640103476
2748010 2 18340762624739316156
7097593 13 18411980303599760723
83771 10 18114181887311571458
8809292 202 18190738639869877042

> <PUBCHEM_SHAPE_MULTIPOLES>
313.51
6.8
2.34
1.08
0.98
0.38
0.09
-3
-2.9
-1.22
-0.12
0.09
-0.08
0.09

> <PUBCHEM_SHAPE_SELFOVERLAP>
656.925

> <PUBCHEM_SHAPE_VOLUME>
179.9

> <PUBCHEM_COORDINATE_TYPE>
2
5
10

$$$$
