11030025
  -OEChem-03052615013D

 22 21  0     0  0  0  0  0  0999 V2000
    2.6687    0.7549    0.0814 Cl  0  0  0  0  0  0  0  0  0  0  0  0
   -2.3616   -0.7654    0.1111 O   0  0  0  0  0  0  0  0  0  0  0  0
    0.7100   -2.3466   -0.1553 O   0  0  0  0  0  0  0  0  0  0  0  0
   -0.0272   -0.0108    0.0164 C   0  0  0  0  0  0  0  0  0  0  0  0
   -0.4276    1.2074   -0.8706 C   0  0  0  0  0  0  0  0  0  0  0  0
   -1.2385   -0.4030    0.9069 C   0  0  0  0  0  0  0  0  0  0  0  0
    0.3399   -1.2009   -0.9141 C   0  0  0  0  0  0  0  0  0  0  0  0
    1.1781    0.2951    0.9462 C   0  0  0  0  0  0  0  0  0  0  0  0
   -0.8418    2.4692   -0.1219 C   0  0  0  0  0  0  0  0  0  0  0  0
   -1.2533    0.9213   -1.5352 H   0  0  0  0  0  0  0  0  0  0  0  0
    0.4042    1.4650   -1.5378 H   0  0  0  0  0  0  0  0  0  0  0  0
   -1.5327    0.4156    1.5713 H   0  0  0  0  0  0  0  0  0  0  0  0
   -0.9930   -1.2561    1.5491 H   0  0  0  0  0  0  0  0  0  0  0  0
    1.1766   -0.9534   -1.5747 H   0  0  0  0  0  0  0  0  0  0  0  0
   -0.4981   -1.4779   -1.5640 H   0  0  0  0  0  0  0  0  0  0  0  0
    1.4291   -0.5741    1.5636 H   0  0  0  0  0  0  0  0  0  0  0  0
    0.9455    1.1114    1.6370 H   0  0  0  0  0  0  0  0  0  0  0  0
   -1.0564    3.2674   -0.8408 H   0  0  0  0  0  0  0  0  0  0  0  0
   -1.7493    2.3162    0.4680 H   0  0  0  0  0  0  0  0  0  0  0  0
   -0.0486    2.8304    0.5378 H   0  0  0  0  0  0  0  0  0  0  0  0
   -3.0800   -1.0009    0.7225 H   0  0  0  0  0  0  0  0  0  0  0  0
   -0.1022   -2.7334    0.2123 H   0  0  0  0  0  0  0  0  0  0  0  0
  1  8  1  0  0  0  0
  2  6  1  0  0  0  0
  2 21  1  0  0  0  0
  3  7  1  0  0  0  0
  3 22  1  0  0  0  0
  4  5  1  0  0  0  0
  4  6  1  0  0  0  0
  4  7  1  0  0  0  0
  4  8  1  0  0  0  0
  5  9  1  0  0  0  0
  5 10  1  0  0  0  0
  5 11  1  0  0  0  0
  6 12  1  0  0  0  0
  6 13  1  0  0  0  0
  7 14  1  0  0  0  0
  7 15  1  0  0  0  0
  8 16  1  0  0  0  0
  8 17  1  0  0  0  0
  9 18  1  0  0  0  0
  9 19  1  0  0  0  0
  9 20  1  0  0  0  0
M  END
> <PUBCHEM_COMPOUND_CID>
11030025

> <PUBCHEM_CONFORMER_RMSD>
0.6

> <PUBCHEM_CONFORMER_DIVERSEORDER>
1
45
50
35
47
15
2
55
57
26
38
4
29
5
54
42
53
39
8
44
62
36
21
41
37
32
61
59
10
16
58
19
6
48
34
27
49
13
40
18
24
60
20
52
23
30
22
14
3
43
56
25
46
12
33
11
28
9
51
17
31
7

> <PUBCHEM_MMFF94_PARTIAL_CHARGES>
8
1 -0.29
2 -0.68
21 0.4
22 0.4
3 -0.68
6 0.28
7 0.28
8 0.29

> <PUBCHEM_EFFECTIVE_ROTOR_COUNT>
4

> <PUBCHEM_PHARMACOPHORE_FEATURES>
5
1 2 acceptor
1 2 donor
1 3 acceptor
1 3 donor
1 9 hydrophobe

> <PUBCHEM_HEAVY_ATOM_COUNT>
9

> <PUBCHEM_ATOM_DEF_STEREO_COUNT>
0

> <PUBCHEM_ATOM_UDEF_STEREO_COUNT>
0

> <PUBCHEM_BOND_DEF_STEREO_COUNT>
0

> <PUBCHEM_BOND_UDEF_STEREO_COUNT>
0

> <PUBCHEM_ISOTOPIC_ATOM_COUNT>
0

> <PUBCHEM_COMPONENT_COUNT>
1

> <PUBCHEM_CACTVS_TAUTO_COUNT>
1

> <PUBCHEM_CONFORMER_ID>
00A84E0900000001

> <PUBCHEM_MMFF94_ENERGY>
20.8712

> <PUBCHEM_FEATURE_SELFOVERLAP>
25.371

> <PUBCHEM_SHAPE_FINGERPRINT>
10219947 1 18266184001068546139
12423570 1 11646898760686830764
137420 1 13427454127184330713
14993402 34 18122907795903755223
16714656 1 18339079422987944696
21501502 16 18194682553460339408
3250762 1 18122628249372634947
5084963 1 18131351921009725768
5943 1 10770113115937007521
68250623 7 18120081797633241482

> <PUBCHEM_SHAPE_MULTIPOLES>
175.35
2.48
2.26
0.99
0.91
0.3
0.02
0.2
0.4
-0.35
-0.44
-0.01
-0.04
0.24

> <PUBCHEM_SHAPE_SELFOVERLAP>
311.927

> <PUBCHEM_SHAPE_VOLUME>
114.7

> <PUBCHEM_COORDINATE_TYPE>
2
5
10

$$$$
