11037286
  -OEChem-03052615053D

 46 49  0     0  0  0  0  0  0999 V2000
    4.5102    0.3167   -1.5749 F   0  0  0  0  0  0  0  0  0  0  0  0
    3.4896   -0.7607    0.0239 F   0  0  0  0  0  0  0  0  0  0  0  0
    6.1381   -0.4567    0.4453 F   0  0  0  0  0  0  0  0  0  0  0  0
    4.9205    0.6036    1.9056 F   0  0  0  0  0  0  0  0  0  0  0  0
    1.9877    1.2686   -1.0144 O   0  0  0  0  0  0  0  0  0  0  0  0
   -4.5218    0.2856    1.4371 O   0  0  0  0  0  0  0  0  0  0  0  0
   -3.1213   -1.2149   -1.7965 O   0  0  0  0  0  0  0  0  0  0  0  0
   -0.6267   -0.2776    2.0049 O   0  0  0  0  0  0  0  0  0  0  0  0
   -2.6079    0.8473    0.1930 N   0  0  0  0  0  0  0  0  0  0  0  0
   -2.0383   -0.3896    0.1242 N   0  0  0  0  0  0  0  0  0  0  0  0
   -1.8704    2.0225   -0.2180 C   0  0  0  0  0  0  0  0  0  0  0  0
   -2.9771    3.0915   -0.1478 C   0  0  0  0  0  0  0  0  0  0  0  0
   -3.9385    2.5908    0.9397 C   0  0  0  0  0  0  0  0  0  0  0  0
   -3.7751    1.0882    0.8991 C   0  0  0  0  0  0  0  0  0  0  0  0
   -0.7785    2.3082    0.7935 C   0  0  0  0  0  0  0  0  0  0  0  0
   -1.3554    1.8668   -1.6289 C   0  0  0  0  0  0  0  0  0  0  0  0
    1.0133    2.3071   -0.9542 C   0  0  0  0  0  0  0  0  0  0  0  0
    0.5139    2.4323    0.4568 C   0  0  0  0  0  0  0  0  0  0  0  0
   -0.0605    1.9936   -1.9546 C   0  0  0  0  0  0  0  0  0  0  0  0
   -2.3503   -1.2930   -0.8597 C   0  0  0  0  0  0  0  0  0  0  0  0
   -1.1089   -0.8267    1.0332 C   0  0  0  0  0  0  0  0  0  0  0  0
   -1.5218   -2.4636   -0.5539 C   0  0  0  0  0  0  0  0  0  0  0  0
   -0.7736   -2.1825    0.5866 C   0  0  0  0  0  0  0  0  0  0  0  0
    3.0908    1.5438   -0.1641 C   0  0  0  0  0  0  0  0  0  0  0  0
   -1.4239   -3.6726   -1.2106 C   0  0  0  0  0  0  0  0  0  0  0  0
    0.1077   -3.0972    1.1244 C   0  0  0  0  0  0  0  0  0  0  0  0
    4.0941    0.4140   -0.2870 C   0  0  0  0  0  0  0  0  0  0  0  0
   -0.5363   -4.6140   -0.6813 C   0  0  0  0  0  0  0  0  0  0  0  0
    0.2215   -4.3293    0.4739 C   0  0  0  0  0  0  0  0  0  0  0  0
    5.2987    0.5976    0.6047 C   0  0  0  0  0  0  0  0  0  0  0  0
   -3.5303    3.1521   -1.0952 H   0  0  0  0  0  0  0  0  0  0  0  0
   -2.6036    4.0979    0.0721 H   0  0  0  0  0  0  0  0  0  0  0  0
   -4.9716    2.8765    0.7270 H   0  0  0  0  0  0  0  0  0  0  0  0
   -3.6457    2.9522    1.9301 H   0  0  0  0  0  0  0  0  0  0  0  0
   -1.0613    2.4615    1.8326 H   0  0  0  0  0  0  0  0  0  0  0  0
   -2.0699    1.6400   -2.4168 H   0  0  0  0  0  0  0  0  0  0  0  0
    1.4813    3.2536   -1.2537 H   0  0  0  0  0  0  0  0  0  0  0  0
    1.1935    2.7303    1.2491 H   0  0  0  0  0  0  0  0  0  0  0  0
    0.2358    1.8718   -2.9930 H   0  0  0  0  0  0  0  0  0  0  0  0
    2.7915    1.5743    0.8857 H   0  0  0  0  0  0  0  0  0  0  0  0
    3.5540    2.4937   -0.4544 H   0  0  0  0  0  0  0  0  0  0  0  0
   -2.0053   -3.8924   -2.0982 H   0  0  0  0  0  0  0  0  0  0  0  0
    0.6910   -2.8793    2.0113 H   0  0  0  0  0  0  0  0  0  0  0  0
   -0.4263   -5.5808   -1.1658 H   0  0  0  0  0  0  0  0  0  0  0  0
    0.9040   -5.0811    0.8619 H   0  0  0  0  0  0  0  0  0  0  0  0
    5.8526    1.5140    0.3833 H   0  0  0  0  0  0  0  0  0  0  0  0
  1 27  1  0  0  0  0
  2 27  1  0  0  0  0
  3 30  1  0  0  0  0
  4 30  1  0  0  0  0
  5 17  1  0  0  0  0
  5 24  1  0  0  0  0
  6 14  2  0  0  0  0
  7 20  2  0  0  0  0
  8 21  2  0  0  0  0
  9 10  1  0  0  0  0
  9 11  1  0  0  0  0
  9 14  1  0  0  0  0
 10 20  1  0  0  0  0
 10 21  1  0  0  0  0
 11 12  1  0  0  0  0
 11 15  1  0  0  0  0
 11 16  1  0  0  0  0
 12 13  1  0  0  0  0
 12 31  1  0  0  0  0
 12 32  1  0  0  0  0
 13 14  1  0  0  0  0
 13 33  1  0  0  0  0
 13 34  1  0  0  0  0
 15 18  2  0  0  0  0
 15 35  1  0  0  0  0
 16 19  2  0  0  0  0
 16 36  1  0  0  0  0
 17 18  1  0  0  0  0
 17 19  1  0  0  0  0
 17 37  1  0  0  0  0
 18 38  1  0  0  0  0
 19 39  1  0  0  0  0
 20 22  1  0  0  0  0
 21 23  1  0  0  0  0
 22 23  1  0  0  0  0
 22 25  2  0  0  0  0
 23 26  2  0  0  0  0
 24 27  1  0  0  0  0
 24 40  1  0  0  0  0
 24 41  1  0  0  0  0
 25 28  1  0  0  0  0
 25 42  1  0  0  0  0
 26 29  1  0  0  0  0
 26 43  1  0  0  0  0
 27 30  1  0  0  0  0
 28 29  2  0  0  0  0
 28 44  1  0  0  0  0
 29 45  1  0  0  0  0
 30 46  1  0  0  0  0
M  END
> <PUBCHEM_COMPOUND_CID>
11037286

> <PUBCHEM_CONFORMER_RMSD>
0.8

> <PUBCHEM_CONFORMER_DIVERSEORDER>
1
10
4
11
5
2
12
9
6
3
7
8

> <PUBCHEM_MMFF94_PARTIAL_CHARGES>
37
1 -0.34
10 -0.12
11 0.58
13 0.06
14 0.57
15 -0.29
16 -0.29
17 0.56
18 -0.29
19 -0.29
2 -0.34
20 0.54
21 0.54
22 0.09
23 0.09
24 0.28
25 -0.15
26 -0.15
27 0.68
28 -0.15
29 -0.15
3 -0.34
30 0.68
35 0.15
36 0.15
38 0.15
39 0.15
4 -0.34
42 0.15
43 0.15
44 0.15
45 0.15
5 -0.56
6 -0.57
7 -0.57
8 -0.57
9 -0.36

> <PUBCHEM_EFFECTIVE_ROTOR_COUNT>
6

> <PUBCHEM_PHARMACOPHORE_FEATURES>
8
1 5 acceptor
1 6 acceptor
1 7 acceptor
1 8 acceptor
5 10 20 21 22 23 rings
5 9 11 12 13 14 rings
6 11 15 16 17 18 19 rings
6 22 23 25 26 28 29 rings

> <PUBCHEM_HEAVY_ATOM_COUNT>
30

> <PUBCHEM_ATOM_DEF_STEREO_COUNT>
0

> <PUBCHEM_ATOM_UDEF_STEREO_COUNT>
0

> <PUBCHEM_BOND_DEF_STEREO_COUNT>
0

> <PUBCHEM_BOND_UDEF_STEREO_COUNT>
0

> <PUBCHEM_ISOTOPIC_ATOM_COUNT>
0

> <PUBCHEM_COMPONENT_COUNT>
1

> <PUBCHEM_CACTVS_TAUTO_COUNT>
2

> <PUBCHEM_CONFORMER_ID>
00A86A6600000001

> <PUBCHEM_MMFF94_ENERGY>
64.9265

> <PUBCHEM_FEATURE_SELFOVERLAP>
40.697

> <PUBCHEM_SHAPE_FINGERPRINT>
10764073 3 17532393013798899747
11014199 57 17904769134898840782
11720765 8 17122803109770864559
12035759 4 18340751690543851853
12156800 1 15147223482808374882
12422481 6 17898568674790518464
12553582 1 17256264059378186426
12633257 1 18412266164123481644
12788726 201 18194694888616969727
13004483 165 17911233146108863415
14020679 6 17989771098346026496
14028597 1 17631185082731868025
14363568 33 17691976955576591714
14659021 117 18196075862843086552
14866123 147 18411982494102134099
15420108 30 18269272362069992663
16120349 306 18337944602391772402
16728300 4 17895749604291613059
19591789 44 18266467688470508899
19930381 70 17979361858498421599
20028762 73 18270691964921064847
20764821 26 18265892446299938462
20775530 9 17615971444874742342
21133410 171 17333605825618786046
21133410 221 16171952635313976266
23559900 14 18201449073479820116
23728640 28 18410019870019649921
3027735 51 18412255134225459854
3298306 158 18118972386153613549
3411729 13 17975144136865214225
463206 1 16680912774901461526
5265222 85 18264228975348627348
5385378 56 18052550872173227793
57527295 17 16831217088608697407
57527585 103 16591961051278623472
6287921 2 17550375242296140539

> <PUBCHEM_SHAPE_MULTIPOLES>
554.85
8.22
5.35
1.61
13.62
6.46
0.16
-4.31
-2.19
-2.92
0.77
-0.2
-0.14
-0.99

> <PUBCHEM_SHAPE_SELFOVERLAP>
1226.5

> <PUBCHEM_SHAPE_VOLUME>
298.5

> <PUBCHEM_COORDINATE_TYPE>
2
5
10

$$$$
