11034444
  -OEChem-03052615013D

 55 59  0     1  0  0  0  0  0999 V2000
   -0.2271   -0.7211    0.4346 O   0  0  0  0  0  0  0  0  0  0  0  0
    0.2910    1.0524    1.8212 O   0  0  0  0  0  0  0  0  0  0  0  0
   -3.7143   -0.7148   -0.8631 C   0  0  1  0  0  0  0  0  0  0  0  0
   -4.2822    0.4120    0.0581 C   0  0  0  0  0  0  0  0  0  0  0  0
   -3.1753    1.2994   -0.5916 C   0  0  2  0  0  0  0  0  0  0  0  0
   -3.4120    0.4389   -1.8635 C   0  0  0  0  0  0  0  0  0  0  0  0
   -2.4172   -1.3701   -0.3598 C   0  0  1  0  0  0  0  0  0  0  0  0
    3.0466    0.7149    1.1808 C   0  0  0  0  0  0  0  0  0  0  0  0
    2.2428   -1.1495   -0.3200 C   0  0  0  0  0  0  0  0  0  0  0  0
   -1.7709    1.0873   -0.0220 C   0  0  0  0  0  0  0  0  0  0  0  0
   -1.6034   -0.3573    0.4747 C   0  0  2  0  0  0  0  0  0  0  0  0
    2.0201   -0.4252    1.0227 C   0  0  0  0  0  0  0  0  0  0  0  0
    4.6869   -0.5067   -0.3020 C   0  0  0  0  0  0  0  0  0  0  0  0
    2.9879    1.0459   -1.3260 C   0  0  0  0  0  0  0  0  0  0  0  0
    4.4903    0.1878    1.0551 C   0  0  0  0  0  0  0  0  0  0  0  0
    2.8029    1.7297    0.0435 C   0  0  0  0  0  0  0  0  0  0  0  0
    3.6896   -1.6706   -0.4254 C   0  0  0  0  0  0  0  0  0  0  0  0
    2.0031   -0.1324   -1.4546 C   0  0  0  0  0  0  0  0  0  0  0  0
    4.4251    0.5076   -1.4284 C   0  0  0  0  0  0  0  0  0  0  0  0
   -4.2487    0.2793    1.5609 C   0  0  0  0  0  0  0  0  0  0  0  0
   -5.6988    0.8315   -0.3162 C   0  0  0  0  0  0  0  0  0  0  0  0
    0.6106    0.0757    1.1572 C   0  0  0  0  0  0  0  0  0  0  0  0
   -2.7469   -2.6148    0.4638 C   0  0  0  0  0  0  0  0  0  0  0  0
   -4.4427   -1.4388   -1.2451 H   0  0  0  0  0  0  0  0  0  0  0  0
   -3.4176    2.3600   -0.7170 H   0  0  0  0  0  0  0  0  0  0  0  0
   -4.2297    0.7519   -2.5194 H   0  0  0  0  0  0  0  0  0  0  0  0
   -2.5386    0.2936   -2.5094 H   0  0  0  0  0  0  0  0  0  0  0  0
   -1.8232   -1.7027   -1.2216 H   0  0  0  0  0  0  0  0  0  0  0  0
    2.9232    1.2159    2.1481 H   0  0  0  0  0  0  0  0  0  0  0  0
    1.5639   -2.0020   -0.4380 H   0  0  0  0  0  0  0  0  0  0  0  0
   -1.0201    1.3468   -0.7777 H   0  0  0  0  0  0  0  0  0  0  0  0
   -1.6361    1.7965    0.8015 H   0  0  0  0  0  0  0  0  0  0  0  0
   -1.8774   -0.4563    1.5269 H   0  0  0  0  0  0  0  0  0  0  0  0
    2.1675   -1.1463    1.8378 H   0  0  0  0  0  0  0  0  0  0  0  0
    5.7114   -0.8874   -0.3780 H   0  0  0  0  0  0  0  0  0  0  0  0
    2.8079    1.7692   -2.1291 H   0  0  0  0  0  0  0  0  0  0  0  0
    4.6956   -0.5191    1.8684 H   0  0  0  0  0  0  0  0  0  0  0  0
    5.2036    1.0140    1.1629 H   0  0  0  0  0  0  0  0  0  0  0  0
    3.5135    2.5611    0.1366 H   0  0  0  0  0  0  0  0  0  0  0  0
    1.8056    2.1784    0.1037 H   0  0  0  0  0  0  0  0  0  0  0  0
    3.8334   -2.1866   -1.3827 H   0  0  0  0  0  0  0  0  0  0  0  0
    3.8761   -2.4077    0.3653 H   0  0  0  0  0  0  0  0  0  0  0  0
    2.1528   -0.6275   -2.4229 H   0  0  0  0  0  0  0  0  0  0  0  0
    0.9771    0.2447   -1.4716 H   0  0  0  0  0  0  0  0  0  0  0  0
    5.1414    1.3356   -1.3613 H   0  0  0  0  0  0  0  0  0  0  0  0
    4.5795    0.0319   -2.4047 H   0  0  0  0  0  0  0  0  0  0  0  0
   -5.0287    0.9006    2.0238 H   0  0  0  0  0  0  0  0  0  0  0  0
   -4.4683   -0.7378    1.8914 H   0  0  0  0  0  0  0  0  0  0  0  0
   -3.3471    0.6475    2.0487 H   0  0  0  0  0  0  0  0  0  0  0  0
   -6.4285    0.1129    0.0771 H   0  0  0  0  0  0  0  0  0  0  0  0
   -5.9411    1.8141    0.1064 H   0  0  0  0  0  0  0  0  0  0  0  0
   -5.8930    0.8993   -1.3893 H   0  0  0  0  0  0  0  0  0  0  0  0
   -3.3341   -3.3238   -0.1300 H   0  0  0  0  0  0  0  0  0  0  0  0
   -1.8262   -3.1226    0.7710 H   0  0  0  0  0  0  0  0  0  0  0  0
   -3.3178   -2.3964    1.3673 H   0  0  0  0  0  0  0  0  0  0  0  0
  1 11  1  0  0  0  0
  1 22  1  0  0  0  0
  2 22  2  0  0  0  0
  3  4  1  0  0  0  0
  3  6  1  0  0  0  0
  3  7  1  0  0  0  0
  3 24  1  0  0  0  0
  4  5  1  0  0  0  0
  4 20  1  0  0  0  0
  4 21  1  0  0  0  0
  5  6  1  0  0  0  0
  5 10  1  0  0  0  0
  5 25  1  0  0  0  0
  6 26  1  0  0  0  0
  6 27  1  0  0  0  0
  7 11  1  0  0  0  0
  7 23  1  0  0  0  0
  7 28  1  0  0  0  0
  8 12  1  0  0  0  0
  8 15  1  0  0  0  0
  8 16  1  0  0  0  0
  8 29  1  0  0  0  0
  9 12  1  0  0  0  0
  9 17  1  0  0  0  0
  9 18  1  0  0  0  0
  9 30  1  0  0  0  0
 10 11  1  0  0  0  0
 10 31  1  0  0  0  0
 10 32  1  0  0  0  0
 11 33  1  0  0  0  0
 12 22  1  0  0  0  0
 12 34  1  0  0  0  0
 13 15  1  0  0  0  0
 13 17  1  0  0  0  0
 13 19  1  0  0  0  0
 13 35  1  0  0  0  0
 14 16  1  0  0  0  0
 14 18  1  0  0  0  0
 14 19  1  0  0  0  0
 14 36  1  0  0  0  0
 15 37  1  0  0  0  0
 15 38  1  0  0  0  0
 16 39  1  0  0  0  0
 16 40  1  0  0  0  0
 17 41  1  0  0  0  0
 17 42  1  0  0  0  0
 18 43  1  0  0  0  0
 18 44  1  0  0  0  0
 19 45  1  0  0  0  0
 19 46  1  0  0  0  0
 20 47  1  0  0  0  0
 20 48  1  0  0  0  0
 20 49  1  0  0  0  0
 21 50  1  0  0  0  0
 21 51  1  0  0  0  0
 21 52  1  0  0  0  0
 23 53  1  0  0  0  0
 23 54  1  0  0  0  0
 23 55  1  0  0  0  0
M  END
> <PUBCHEM_COMPOUND_CID>
11034444

> <PUBCHEM_CONFORMER_RMSD>
0.8

> <PUBCHEM_CONFORMER_DIVERSEORDER>
1
10
7
5
3
6
12
16
11
14
15
9
2
13
8
4

> <PUBCHEM_MMFF94_PARTIAL_CHARGES>
5
1 -0.43
11 0.28
12 0.06
2 -0.57
22 0.66

> <PUBCHEM_EFFECTIVE_ROTOR_COUNT>
5.2

> <PUBCHEM_PHARMACOPHORE_FEATURES>
7
1 2 acceptor
3 4 20 21 hydrophobe
6 8 13 14 15 16 19 rings
6 8 9 12 13 15 17 rings
6 8 9 12 14 16 18 rings
6 9 13 14 17 18 19 rings
7 3 4 5 6 7 10 11 rings

> <PUBCHEM_HEAVY_ATOM_COUNT>
23

> <PUBCHEM_ATOM_DEF_STEREO_COUNT>
4

> <PUBCHEM_ATOM_UDEF_STEREO_COUNT>
0

> <PUBCHEM_BOND_DEF_STEREO_COUNT>
0

> <PUBCHEM_BOND_UDEF_STEREO_COUNT>
0

> <PUBCHEM_ISOTOPIC_ATOM_COUNT>
0

> <PUBCHEM_COMPONENT_COUNT>
1

> <PUBCHEM_CACTVS_TAUTO_COUNT>
1

> <PUBCHEM_CONFORMER_ID>
00A85F4C00000001

> <PUBCHEM_MMFF94_ENERGY>
81.4304

> <PUBCHEM_FEATURE_SELFOVERLAP>
48.039

> <PUBCHEM_SHAPE_FINGERPRINT>
10 15 8069734154212105878
10498660 4 18187917404849794853
10646746 165 18260261980070496548
11370993 70 18409443687393893726
11405975 8 18335420188018908482
12107183 9 13843319102970387165
12166972 35 14996006532033084684
12173636 292 18336540535049696719
12236239 1 17312821576343870207
12363563 72 16845857888357571720
12403814 3 17385720301525630079
12507557 5 14851603293280060311
12616971 3 17458338658650774446
12633257 1 18334572460153307284
12670546 56 10303814271861410335
12707595 3 17131834304237416626
12788726 201 17345766165689780577
128620 24 17603304851747035429
12916748 109 17531250534579360685
13224815 77 18339924912821987843
14341114 328 15864355718736852849
14386348 63 17489869349258112311
15183329 4 15913327949832699401
15375358 24 17131830975553469890
15788980 27 18186800274986602170
17349148 13 18130785616676459442
18186145 218 18335136501081156306
19862831 5 18343866610494370050
200 152 14405181764119368827
20645477 56 18260828202789062367
20645477 70 16702300165688546076
21033648 29 18187631484587727277
21033650 10 17273162144395706200
21250096 35 16487254356986000272
21503847 285 16732986418665401764
21864079 5 16587737655143596276
22079108 93 15647060373826596977
22646028 28 13973966501813074772
23227448 37 17386011710482309815
23402539 116 18273208677642191064
23557571 272 18263924500172809939
23559900 14 18341892983476670626
2838139 119 15865447503971594327
296302 2 17203606003756148200
3004659 81 16702304529422817732
3545911 37 18408324375950629910
474 4 16515972565769463004
4921388 177 18335140938146688147
5104073 3 18261954158171777936
5161694 15 18410856538228477822
5281201 14 18260270702948595414
542803 24 17530685402761421589
7399639 24 17264113451688265569
7495541 125 18336831990955487753
960060 61 17346881160764452044
9981440 41 16740601876655101044

> <PUBCHEM_SHAPE_MULTIPOLES>
461.59
11.24
1.68
1.56
3.21
0.64
0.11
-1.35
-1.3
0.46
-0.2
-0.27
-0.26
0.13

> <PUBCHEM_SHAPE_SELFOVERLAP>
1010.828

> <PUBCHEM_SHAPE_VOLUME>
247.2

> <PUBCHEM_COORDINATE_TYPE>
2
5
10

$$$$
