11036814
  -OEChem-03052615023D

 37 39  0     0  0  0  0  0  0999 V2000
   -3.2636    0.2367    2.7472 Cl  0  0  0  0  0  0  0  0  0  0  0  0
    5.2348    0.0774    0.4779 S   0  0  0  0  0  0  0  0  0  0  0  0
   -6.0654    0.8152    2.1007 F   0  0  0  0  0  0  0  0  0  0  0  0
   -5.7810    0.1055   -2.4158 F   0  0  0  0  0  0  0  0  0  0  0  0
    5.5104   -1.4039   -0.1442 O   0  0  0  0  0  0  0  0  0  0  0  0
    6.1237    1.0046   -0.1948 O   0  0  0  0  0  0  0  0  0  0  0  0
    5.2040   -0.0262    1.9232 O   0  0  0  0  0  0  0  0  0  0  0  0
   -1.9273   -0.4547    0.1279 N   0  0  0  0  0  0  0  0  0  0  0  0
    4.3007    2.8007   -0.2877 N   0  0  0  0  0  0  0  0  0  0  0  0
   -3.8731   -0.1762   -1.1848 N   0  0  0  0  0  0  0  0  0  0  0  0
   -5.9587    0.4678   -0.1638 N   0  0  0  0  0  0  0  0  0  0  0  0
    1.2864   -0.1467   -0.5084 C   0  0  0  0  0  0  0  0  0  0  0  0
    2.5898   -0.5130   -0.0961 C   0  0  0  0  0  0  0  0  0  0  0  0
    0.2870   -1.1307   -0.5808 C   0  0  0  0  0  0  0  0  0  0  0  0
    3.5891    0.4710   -0.0237 C   0  0  0  0  0  0  0  0  0  0  0  0
   -1.1116   -0.8113   -1.0099 C   0  0  0  0  0  0  0  0  0  0  0  0
    1.0209    1.1928   -0.8362 C   0  0  0  0  0  0  0  0  0  0  0  0
    3.3076    1.7971   -0.3534 C   0  0  0  0  0  0  0  0  0  0  0  0
    2.8553   -1.8525    0.2317 C   0  0  0  0  0  0  0  0  0  0  0  0
    0.5686   -2.4569   -0.2513 C   0  0  0  0  0  0  0  0  0  0  0  0
    2.0259    2.1573   -0.7588 C   0  0  0  0  0  0  0  0  0  0  0  0
    1.8503   -2.8170    0.1542 C   0  0  0  0  0  0  0  0  0  0  0  0
   -3.2747   -0.1452    0.0404 C   0  0  0  0  0  0  0  0  0  0  0  0
   -3.9891    0.1891    1.1913 C   0  0  0  0  0  0  0  0  0  0  0  0
   -5.3267    0.4860    1.0281 C   0  0  0  0  0  0  0  0  0  0  0  0
   -5.1835    0.1330   -1.2128 C   0  0  0  0  0  0  0  0  0  0  0  0
   -1.1403   -0.0381   -1.7849 H   0  0  0  0  0  0  0  0  0  0  0  0
   -1.5424   -1.6981   -1.4957 H   0  0  0  0  0  0  0  0  0  0  0  0
    0.0382    1.5381   -1.1422 H   0  0  0  0  0  0  0  0  0  0  0  0
    3.7697   -2.2152    0.6762 H   0  0  0  0  0  0  0  0  0  0  0  0
   -0.2037   -3.2205   -0.2966 H   0  0  0  0  0  0  0  0  0  0  0  0
    1.7919    3.1877   -1.0151 H   0  0  0  0  0  0  0  0  0  0  0  0
    2.0597   -3.8446    0.4379 H   0  0  0  0  0  0  0  0  0  0  0  0
   -1.4590   -0.1988    0.9917 H   0  0  0  0  0  0  0  0  0  0  0  0
    5.2063    2.6253    0.1209 H   0  0  0  0  0  0  0  0  0  0  0  0
    4.0548    3.7527   -0.5281 H   0  0  0  0  0  0  0  0  0  0  0  0
    5.5423   -1.4512   -1.1287 H   0  0  0  0  0  0  0  0  0  0  0  0
  1 24  1  0  0  0  0
  2  5  1  0  0  0  0
  2  6  2  0  0  0  0
  2  7  2  0  0  0  0
  2 15  1  0  0  0  0
  3 25  1  0  0  0  0
  4 26  1  0  0  0  0
  5 37  1  0  0  0  0
  8 16  1  0  0  0  0
  8 23  1  0  0  0  0
  8 34  1  0  0  0  0
  9 18  1  0  0  0  0
  9 35  1  0  0  0  0
  9 36  1  0  0  0  0
 10 23  1  0  0  0  0
 10 26  2  0  0  0  0
 11 25  2  0  0  0  0
 11 26  1  0  0  0  0
 12 13  1  0  0  0  0
 12 14  2  0  0  0  0
 12 17  1  0  0  0  0
 13 15  1  0  0  0  0
 13 19  2  0  0  0  0
 14 16  1  0  0  0  0
 14 20  1  0  0  0  0
 15 18  2  0  0  0  0
 16 27  1  0  0  0  0
 16 28  1  0  0  0  0
 17 21  2  0  0  0  0
 17 29  1  0  0  0  0
 18 21  1  0  0  0  0
 19 22  1  0  0  0  0
 19 30  1  0  0  0  0
 20 22  2  0  0  0  0
 20 31  1  0  0  0  0
 21 32  1  0  0  0  0
 22 33  1  0  0  0  0
 23 24  2  0  0  0  0
 24 25  1  0  0  0  0
M  END
> <PUBCHEM_COMPOUND_CID>
11036814

> <PUBCHEM_CONFORMER_RMSD>
0.8

> <PUBCHEM_CONFORMER_DIVERSEORDER>
2
21
26
19
12
27
11
13
9
22
15
16
5
25
20
14
3
8
24
6
4
10
7
18
23
17
1

> <PUBCHEM_MMFF94_PARTIAL_CHARGES>
33
1 -0.18
10 -0.62
11 -0.62
14 -0.14
15 -0.01
16 0.51
17 -0.15
18 0.1
19 -0.15
2 1.49
20 -0.15
21 -0.15
22 -0.15
23 0.41
24 0.18
25 0.5
26 0.81
29 0.15
3 -0.19
30 0.15
31 0.15
32 0.15
33 0.15
34 0.4
35 0.4
36 0.4
37 0.5
4 -0.19
5 -0.68
6 -0.65
7 -0.65
8 -0.87
9 -0.9

> <PUBCHEM_EFFECTIVE_ROTOR_COUNT>
4

> <PUBCHEM_PHARMACOPHORE_FEATURES>
13
1 11 acceptor
1 5 acceptor
1 6 acceptor
1 7 acceptor
1 8 cation
1 8 donor
1 9 cation
1 9 donor
3 10 11 26 cation
4 2 5 6 7 anion
6 10 11 23 24 25 26 rings
6 12 13 14 19 20 22 rings
6 12 13 15 17 18 21 rings

> <PUBCHEM_HEAVY_ATOM_COUNT>
26

> <PUBCHEM_ATOM_DEF_STEREO_COUNT>
0

> <PUBCHEM_ATOM_UDEF_STEREO_COUNT>
0

> <PUBCHEM_BOND_DEF_STEREO_COUNT>
0

> <PUBCHEM_BOND_UDEF_STEREO_COUNT>
0

> <PUBCHEM_ISOTOPIC_ATOM_COUNT>
0

> <PUBCHEM_COMPONENT_COUNT>
1

> <PUBCHEM_CACTVS_TAUTO_COUNT>
3

> <PUBCHEM_CONFORMER_ID>
00A8688E00000002

> <PUBCHEM_MMFF94_ENERGY>
91.0976

> <PUBCHEM_FEATURE_SELFOVERLAP>
66.053

> <PUBCHEM_SHAPE_FINGERPRINT>
10319926 262 16443065015152654801
10411042 1 17905040358026518974
11045977 3 17385444336300961048
11089746 13 17846494854985003680
11545043 162 16370728136682100421
11796584 16 15864350208093326834
12236239 1 17846495920089465999
12596602 18 17417804054459782859
12633257 1 17967819374429871619
13140716 1 18190170377717182882
13402501 40 17821722823783393293
13540713 5 17974557298677569814
13583140 156 17458338650488322315
13631057 29 18128809932375122495
13782708 43 17167869685784358179
14341114 176 17458068178864448044
14739800 52 17060039442298155594
15081414 286 18411141294997812230
15348495 7 17240769535393090865
15475509 35 16226316059176603856
15475509 8 18200333052118525860
15961568 22 15840972464497969131
16988056 13 14388356706795820713
19377110 9 18131074848981557867
20511986 3 17917141698732985929
21033648 144 18336825385606938663
21033648 29 17458061556599553093
21033650 10 15912511063378177738
21792961 116 17822285714367122350
23559900 14 16733549304131516511
23569917 315 18273214222351084518
23569943 247 17983861082188400438
3004659 81 11963394063532039179
3178227 256 18186525397828621186
329604 57 11743847962516981010
335352 9 18409444809287225798
34797466 226 14620792743051966801
3633792 109 18269824355846906639
465052 167 17530683195802255338
474 4 18412547625787912107
5104073 3 18190736621488352202

> <PUBCHEM_SHAPE_MULTIPOLES>
488.71
15.11
2.2
1.68
9.81
0.36
0.8
-4.49
2.38
-3.42
-0.31
3.05
-0.24
-0.76

> <PUBCHEM_SHAPE_SELFOVERLAP>
1054.271

> <PUBCHEM_SHAPE_VOLUME>
272

> <PUBCHEM_COORDINATE_TYPE>
2
5
10

$$$$
