11043232
  -OEChem-03052615013D

 38 39  0     1  0  0  0  0  0999 V2000
    1.9147   -1.7703   -1.0015 O   0  0  0  0  0  0  0  0  0  0  0  0
    1.8735    2.1375    0.1238 O   0  0  0  0  0  0  0  0  0  0  0  0
    1.0068   -2.2573    1.0662 O   0  0  0  0  0  0  0  0  0  0  0  0
    3.3153    0.3364    0.0070 O   0  0  0  0  0  0  0  0  0  0  0  0
   -1.2997    0.5340    1.0819 C   0  0  2  0  0  0  0  0  0  0  0  0
   -1.1641    1.1439   -0.3161 C   0  0  1  0  0  0  0  0  0  0  0  0
    0.9347   -0.0090    0.1943 C   0  0  0  0  0  0  0  0  0  0  0  0
    0.1743    0.3465    1.4879 C   0  0  0  0  0  0  0  0  0  0  0  0
   -0.0264    0.3364   -0.9603 C   0  0  0  0  0  0  0  0  0  0  0  0
   -2.0656   -0.7883    1.1743 C   0  0  0  0  0  0  0  0  0  0  0  0
   -2.3408    1.2776   -1.2323 C   0  0  0  0  0  0  0  0  0  0  0  0
   -3.5658   -0.6026    0.9919 C   0  0  0  0  0  0  0  0  0  0  0  0
    1.2749   -1.4737    0.1654 C   0  0  0  0  0  0  0  0  0  0  0  0
    2.1915    0.8120    0.0963 C   0  0  0  0  0  0  0  0  0  0  0  0
   -4.0084   -0.5259   -0.4617 C   0  0  0  0  0  0  0  0  0  0  0  0
   -3.4963    0.6044   -1.2937 C   0  0  0  0  0  0  0  0  0  0  0  0
    2.2988   -3.1396   -1.1615 C   0  0  0  0  0  0  0  0  0  0  0  0
    2.9826    3.0379    0.0381 C   0  0  0  0  0  0  0  0  0  0  0  0
   -1.7678    1.2556    1.7640 H   0  0  0  0  0  0  0  0  0  0  0  0
   -0.7996    2.1717   -0.1656 H   0  0  0  0  0  0  0  0  0  0  0  0
    0.5301    1.2899    1.9219 H   0  0  0  0  0  0  0  0  0  0  0  0
    0.2802   -0.3882    2.2933 H   0  0  0  0  0  0  0  0  0  0  0  0
   -0.4292   -0.5714   -1.4295 H   0  0  0  0  0  0  0  0  0  0  0  0
    0.4556    0.9127   -1.7598 H   0  0  0  0  0  0  0  0  0  0  0  0
   -1.9065   -1.2070    2.1765 H   0  0  0  0  0  0  0  0  0  0  0  0
   -1.6861   -1.5329    0.4658 H   0  0  0  0  0  0  0  0  0  0  0  0
   -2.2055    2.0424   -1.9989 H   0  0  0  0  0  0  0  0  0  0  0  0
   -3.9142    0.2803    1.5419 H   0  0  0  0  0  0  0  0  0  0  0  0
   -4.0729   -1.4639    1.4457 H   0  0  0  0  0  0  0  0  0  0  0  0
   -5.1042   -0.4560   -0.4593 H   0  0  0  0  0  0  0  0  0  0  0  0
   -3.7704   -1.4664   -0.9739 H   0  0  0  0  0  0  0  0  0  0  0  0
   -4.1688    0.8909   -2.1028 H   0  0  0  0  0  0  0  0  0  0  0  0
    2.9999   -3.4304   -0.3734 H   0  0  0  0  0  0  0  0  0  0  0  0
    2.7963   -3.2421   -2.1295 H   0  0  0  0  0  0  0  0  0  0  0  0
    1.4148   -3.7842   -1.1506 H   0  0  0  0  0  0  0  0  0  0  0  0
    3.5149    2.8936   -0.9068 H   0  0  0  0  0  0  0  0  0  0  0  0
    3.6557    2.8912    0.8881 H   0  0  0  0  0  0  0  0  0  0  0  0
    2.5942    4.0593    0.0699 H   0  0  0  0  0  0  0  0  0  0  0  0
  1 13  1  0  0  0  0
  1 17  1  0  0  0  0
  2 14  1  0  0  0  0
  2 18  1  0  0  0  0
  3 13  2  0  0  0  0
  4 14  2  0  0  0  0
  5  6  1  0  0  0  0
  5  8  1  0  0  0  0
  5 10  1  0  0  0  0
  5 19  1  0  0  0  0
  6  9  1  0  0  0  0
  6 11  1  0  0  0  0
  6 20  1  0  0  0  0
  7  8  1  0  0  0  0
  7  9  1  0  0  0  0
  7 13  1  0  0  0  0
  7 14  1  0  0  0  0
  8 21  1  0  0  0  0
  8 22  1  0  0  0  0
  9 23  1  0  0  0  0
  9 24  1  0  0  0  0
 10 12  1  0  0  0  0
 10 25  1  0  0  0  0
 10 26  1  0  0  0  0
 11 16  2  0  0  0  0
 11 27  1  0  0  0  0
 12 15  1  0  0  0  0
 12 28  1  0  0  0  0
 12 29  1  0  0  0  0
 15 16  1  0  0  0  0
 15 30  1  0  0  0  0
 15 31  1  0  0  0  0
 16 32  1  0  0  0  0
 17 33  1  0  0  0  0
 17 34  1  0  0  0  0
 17 35  1  0  0  0  0
 18 36  1  0  0  0  0
 18 37  1  0  0  0  0
 18 38  1  0  0  0  0
M  END
> <PUBCHEM_COMPOUND_CID>
11043232

> <PUBCHEM_CONFORMER_RMSD>
0.6

> <PUBCHEM_CONFORMER_DIVERSEORDER>
1
61
39
16
49
47
11
58
8
12
57
33
43
36
54
48
44
32
35
22
19
7
27
59
23
56
37
50
62
34
17
51
31
18
46
15
63
20
55
2
9
60
53
6
14
28
45
5
52
29
3
41
40
30
26
4
10
42
38
21
13
25
24

> <PUBCHEM_MMFF94_PARTIAL_CHARGES>
15
1 -0.43
11 -0.29
13 0.66
14 0.66
15 0.14
16 -0.29
17 0.28
18 0.28
2 -0.43
27 0.15
3 -0.57
32 0.15
4 -0.57
6 0.14
7 0.12

> <PUBCHEM_EFFECTIVE_ROTOR_COUNT>
5.2

> <PUBCHEM_PHARMACOPHORE_FEATURES>
4
1 3 acceptor
1 4 acceptor
5 5 6 7 8 9 rings
7 5 6 10 11 12 15 16 rings

> <PUBCHEM_HEAVY_ATOM_COUNT>
18

> <PUBCHEM_ATOM_DEF_STEREO_COUNT>
2

> <PUBCHEM_ATOM_UDEF_STEREO_COUNT>
0

> <PUBCHEM_BOND_DEF_STEREO_COUNT>
0

> <PUBCHEM_BOND_UDEF_STEREO_COUNT>
0

> <PUBCHEM_ISOTOPIC_ATOM_COUNT>
0

> <PUBCHEM_COMPONENT_COUNT>
1

> <PUBCHEM_CACTVS_TAUTO_COUNT>
1

> <PUBCHEM_CONFORMER_ID>
00A881A000000001

> <PUBCHEM_MMFF94_ENERGY>
45.3455

> <PUBCHEM_FEATURE_SELFOVERLAP>
20.344

> <PUBCHEM_SHAPE_FINGERPRINT>
107287 299 18411134774926356585
11132069 177 17677324060497379133
12119455 92 18191015910131952200
12423570 1 12552480125499603944
12553582 1 17762064233050864819
14817 1 10395221466946567176
15219456 202 18260263087987715393
15375358 24 17895462722520521917
15502722 9 18413107260142313940
16945 1 18271816730328423440
1813 80 17415298138838254222
18186145 218 18200038485369599624
18915476 22 18411984662907079327
19786989 88 18340207500169003825
200 152 18202277005128250105
204376 136 18196934598361902448
20645477 70 18340475687134079591
20671657 53 18124878962586448918
21501502 16 18189047603855500305
21524375 3 18193554695534051024
22112679 90 16415482627434250025
22182313 1 17895199909192562579
22802520 49 18041841688952512763
23114952 82 18335987480094426421
23402539 116 17387117870766880683
23419403 2 17616868504650172802
23526113 38 18190734237280348871
23557571 272 17676779768203164523
23559900 14 17603576439809640768
238 59 18194092240618506927
2748010 2 17968390008406676843
458136 41 18197795472789567472
5262128 65 18198909102080613375
58051976 378 18336532881032950629
6049 1 18041291971677266261
633830 44 17772777045491713240
7364860 26 18412824668442529092
77492 1 17203332216929328289
81228 2 17386013836639210493
84936 31 18201429273036234262
9709674 26 18335416842619173359

> <PUBCHEM_SHAPE_MULTIPOLES>
346.95
5.86
2.74
1.37
3.26
0.65
0.05
-0.57
-1
-3.7
-0.62
0.69
0.27
1.1

> <PUBCHEM_SHAPE_SELFOVERLAP>
720.746

> <PUBCHEM_SHAPE_VOLUME>
197.7

> <PUBCHEM_COORDINATE_TYPE>
2
5
10

$$$$
