11140026
  -OEChem-03052615013D

 35 38  0     1  0  0  0  0  0999 V2000
    0.0323   -0.6306   -1.7888 O   0  0  0  0  0  0  0  0  0  0  0  0
    0.8748   -3.2268    1.4286 O   0  0  0  0  0  0  0  0  0  0  0  0
    0.6484   -1.8208    1.4351 N   0  0  0  0  0  0  0  0  0  0  0  0
   -0.0045   -0.1961   -0.3820 C   0  0  0  0  0  0  0  0  0  0  0  0
    0.1084   -2.6678   -0.6726 C   0  0  1  0  0  0  0  0  0  0  0  0
    0.2597   -1.5317    0.2383 C   0  0  0  0  0  0  0  0  0  0  0  0
    0.5730   -1.9621   -1.9078 C   0  0  0  0  0  0  0  0  0  0  0  0
    1.0060   -3.6240    0.0498 C   0  0  0  0  0  0  0  0  0  0  0  0
    1.0964    0.8145   -0.0809 C   0  0  0  0  0  0  0  0  0  0  0  0
   -1.4041    0.3577   -0.1461 C   0  0  0  0  0  0  0  0  0  0  0  0
    1.2233    1.3574    1.2018 C   0  0  0  0  0  0  0  0  0  0  0  0
   -1.8491    1.4763   -0.8584 C   0  0  0  0  0  0  0  0  0  0  0  0
    1.9880    1.2057   -1.0850 C   0  0  0  0  0  0  0  0  0  0  0  0
   -2.2548   -0.2484    0.7842 C   0  0  0  0  0  0  0  0  0  0  0  0
    2.2307    2.2819    1.4774 C   0  0  0  0  0  0  0  0  0  0  0  0
   -3.1304    1.9833   -0.6427 C   0  0  0  0  0  0  0  0  0  0  0  0
    2.9956    2.1301   -0.8091 C   0  0  0  0  0  0  0  0  0  0  0  0
   -3.5363    0.2587    0.9998 C   0  0  0  0  0  0  0  0  0  0  0  0
    3.1168    2.6682    0.4721 C   0  0  0  0  0  0  0  0  0  0  0  0
   -3.9741    1.3746    0.2863 C   0  0  0  0  0  0  0  0  0  0  0  0
   -0.9467   -2.9578   -0.6888 H   0  0  0  0  0  0  0  0  0  0  0  0
    1.6643   -1.8880   -1.9815 H   0  0  0  0  0  0  0  0  0  0  0  0
    0.1949   -2.4250   -2.8234 H   0  0  0  0  0  0  0  0  0  0  0  0
    0.6843   -4.6629   -0.0625 H   0  0  0  0  0  0  0  0  0  0  0  0
    2.0595   -3.5429   -0.2399 H   0  0  0  0  0  0  0  0  0  0  0  0
    0.5426    1.0697    1.9988 H   0  0  0  0  0  0  0  0  0  0  0  0
   -1.2074    1.9612   -1.5895 H   0  0  0  0  0  0  0  0  0  0  0  0
    1.9236    0.8119   -2.0948 H   0  0  0  0  0  0  0  0  0  0  0  0
   -1.9570   -1.1157    1.3640 H   0  0  0  0  0  0  0  0  0  0  0  0
    2.3250    2.7010    2.4749 H   0  0  0  0  0  0  0  0  0  0  0  0
   -3.4718    2.8514   -1.1988 H   0  0  0  0  0  0  0  0  0  0  0  0
    3.6854    2.4320   -1.5919 H   0  0  0  0  0  0  0  0  0  0  0  0
   -4.1935   -0.2145    1.7235 H   0  0  0  0  0  0  0  0  0  0  0  0
    3.9011    3.3881    0.6867 H   0  0  0  0  0  0  0  0  0  0  0  0
   -4.9719    1.7693    0.4542 H   0  0  0  0  0  0  0  0  0  0  0  0
  1  4  1  0  0  0  0
  1  7  1  0  0  0  0
  2  3  1  0  0  0  0
  2  8  1  0  0  0  0
  3  6  2  0  0  0  0
  4  6  1  0  0  0  0
  4  9  1  0  0  0  0
  4 10  1  0  0  0  0
  5  6  1  0  0  0  0
  5  7  1  0  0  0  0
  5  8  1  0  0  0  0
  5 21  1  0  0  0  0
  7 22  1  0  0  0  0
  7 23  1  0  0  0  0
  8 24  1  0  0  0  0
  8 25  1  0  0  0  0
  9 11  2  0  0  0  0
  9 13  1  0  0  0  0
 10 12  2  0  0  0  0
 10 14  1  0  0  0  0
 11 15  1  0  0  0  0
 11 26  1  0  0  0  0
 12 16  1  0  0  0  0
 12 27  1  0  0  0  0
 13 17  2  0  0  0  0
 13 28  1  0  0  0  0
 14 18  2  0  0  0  0
 14 29  1  0  0  0  0
 15 19  2  0  0  0  0
 15 30  1  0  0  0  0
 16 20  2  0  0  0  0
 16 31  1  0  0  0  0
 17 19  1  0  0  0  0
 17 32  1  0  0  0  0
 18 20  1  0  0  0  0
 18 33  1  0  0  0  0
 19 34  1  0  0  0  0
 20 35  1  0  0  0  0
M  END
> <PUBCHEM_COMPOUND_CID>
11140026

> <PUBCHEM_CONFORMER_RMSD>
0.6

> <PUBCHEM_CONFORMER_DIVERSEORDER>
1
2
3

> <PUBCHEM_MMFF94_PARTIAL_CHARGES>
30
1 -0.56
10 -0.14
11 -0.15
12 -0.15
13 -0.15
14 -0.15
15 -0.15
16 -0.15
17 -0.15
18 -0.15
19 -0.15
2 -0.22
20 -0.15
26 0.15
27 0.15
28 0.15
29 0.15
3 -0.51
30 0.15
31 0.15
32 0.15
33 0.15
34 0.15
35 0.15
4 0.63
5 0.06
6 0.33
7 0.28
8 0.28
9 -0.14

> <PUBCHEM_EFFECTIVE_ROTOR_COUNT>
3

> <PUBCHEM_PHARMACOPHORE_FEATURES>
6
1 1 acceptor
1 3 acceptor
5 1 4 5 6 7 rings
5 2 3 5 6 8 rings
6 10 12 14 16 18 20 rings
6 9 11 13 15 17 19 rings

> <PUBCHEM_HEAVY_ATOM_COUNT>
20

> <PUBCHEM_ATOM_DEF_STEREO_COUNT>
0

> <PUBCHEM_ATOM_UDEF_STEREO_COUNT>
1

> <PUBCHEM_BOND_DEF_STEREO_COUNT>
0

> <PUBCHEM_BOND_UDEF_STEREO_COUNT>
0

> <PUBCHEM_ISOTOPIC_ATOM_COUNT>
0

> <PUBCHEM_COMPONENT_COUNT>
1

> <PUBCHEM_CACTVS_TAUTO_COUNT>
1

> <PUBCHEM_CONFORMER_ID>
00A9FBBA00000001

> <PUBCHEM_MMFF94_ENERGY>
66.9352

> <PUBCHEM_FEATURE_SELFOVERLAP>
30.758

> <PUBCHEM_SHAPE_FINGERPRINT>
10165383 225 18124625151668346953
107951 10 18117576213293575238
11578080 2 11256141794536524943
12532896 13 18197774603659761100
12730499 353 18341060644769203953
12788726 201 17691110961082581928
13004483 165 17188682586210208258
13134695 92 17764286376299656357
13140716 1 18410853269705507569
13294875 104 18129647639258523776
133893 2 18120343541598805519
13464514 151 18123486993808641069
136203 1 17690279730233935202
13681431 1 17910675362874271045
14178342 30 18117865359144998347
14181834 199 17982989199130203509
14787075 74 18043826294313835382
14817 1 13070048371891727774
14955137 171 18200308802079291282
15309172 13 18337672035225219009
15490181 7 18341045306612347175
15906896 17 17978228584296353070
16945 1 18264757770988341462
20369508 70 17974288716923441837
20600515 1 17325764777780349006
20645476 183 18191309479789380684
20711985 344 17691958684758580824
20905425 154 18051415063296369524
21524375 3 18343018942837653277
21731228 192 18338232785875602256
23419403 2 17333714526080559790
23557571 272 17259330602004545208
23558518 356 18195799893829976078
23559900 14 17968668090733887053
25 1 17917165964676066508
298252 57 17346323738333616676
31174 14 18266186020093617257
3729539 64 18194711206052367742
427121 178 18195270981560713707
458136 41 18338255802921787665
495365 180 18266449920159384069
5845 1 8768216536983965557
5895379 119 16410709463123251529
6138700 20 18194695774335502406
6442390 28 18268162031219164161
7364860 26 18266742381118651085
81228 2 17620464044737062753

> <PUBCHEM_SHAPE_MULTIPOLES>
394.87
4.84
4.03
1.55
2.59
3.69
-0.1
-5.81
0.62
-1.84
0.45
-0.4
0.36
0.38

> <PUBCHEM_SHAPE_SELFOVERLAP>
881.671

> <PUBCHEM_SHAPE_VOLUME>
211.4

> <PUBCHEM_COORDINATE_TYPE>
2
5
10

$$$$
