11186716
  -OEChem-03052615003D

 41 44  0     1  0  0  0  0  0999 V2000
    1.6529   -1.3750   -1.9932 P   0  0  1  0  0  0  0  0  0  0  0  0
    0.2615   -0.8280   -1.3578 O   0  0  0  0  0  0  0  0  0  0  0  0
    2.4790   -1.5675   -0.6181 O   0  0  0  0  0  0  0  0  0  0  0  0
    1.2140   -2.9181   -2.2070 O   0  0  0  0  0  0  0  0  0  0  0  0
   -2.0868   -0.3926   -1.4121 C   0  0  0  0  0  0  0  0  0  0  0  0
   -2.2672   -1.0333   -0.0433 C   0  0  0  0  0  0  0  0  0  0  0  0
   -1.9103    1.0732   -1.0419 C   0  0  0  0  0  0  0  0  0  0  0  0
   -2.2159   -0.0509    0.9713 C   0  0  0  0  0  0  0  0  0  0  0  0
   -1.9969    1.2416    0.3587 C   0  0  0  0  0  0  0  0  0  0  0  0
   -0.8914   -0.9547   -2.1710 C   0  0  0  0  0  0  0  0  0  0  0  0
   -2.4761   -2.3690    0.2595 C   0  0  0  0  0  0  0  0  0  0  0  0
   -1.7097    2.1543   -1.8848 C   0  0  0  0  0  0  0  0  0  0  0  0
   -2.3649   -0.4037    2.3027 C   0  0  0  0  0  0  0  0  0  0  0  0
   -1.8728    2.4992    0.9267 C   0  0  0  0  0  0  0  0  0  0  0  0
   -2.6260   -2.7241    1.6012 C   0  0  0  0  0  0  0  0  0  0  0  0
   -1.5847    3.4212   -1.3120 C   0  0  0  0  0  0  0  0  0  0  0  0
   -2.5702   -1.7512    2.6130 C   0  0  0  0  0  0  0  0  0  0  0  0
   -1.6646    3.5919    0.0801 C   0  0  0  0  0  0  0  0  0  0  0  0
    3.1223   -0.5891    0.0982 C   0  0  0  0  0  0  0  0  0  0  0  0
    4.1434    0.1391   -0.4990 C   0  0  0  0  0  0  0  0  0  0  0  0
    2.7441   -0.3401    1.4115 C   0  0  0  0  0  0  0  0  0  0  0  0
    4.7974    1.1328    0.2293 C   0  0  0  0  0  0  0  0  0  0  0  0
    3.3982    0.6537    2.1396 C   0  0  0  0  0  0  0  0  0  0  0  0
    4.4248    1.3901    1.5484 C   0  0  0  0  0  0  0  0  0  0  0  0
   -3.0126   -0.5053   -1.9887 H   0  0  0  0  0  0  0  0  0  0  0  0
   -0.7550   -0.4077   -3.1136 H   0  0  0  0  0  0  0  0  0  0  0  0
   -1.0890   -2.0078   -2.4098 H   0  0  0  0  0  0  0  0  0  0  0  0
   -2.5238   -3.1227   -0.5187 H   0  0  0  0  0  0  0  0  0  0  0  0
   -1.6518    2.0279   -2.9602 H   0  0  0  0  0  0  0  0  0  0  0  0
   -2.3261    0.3364    3.0950 H   0  0  0  0  0  0  0  0  0  0  0  0
   -1.9341    2.6473    1.9997 H   0  0  0  0  0  0  0  0  0  0  0  0
   -2.7892   -3.7650    1.8678 H   0  0  0  0  0  0  0  0  0  0  0  0
   -1.4250    4.2869   -1.9492 H   0  0  0  0  0  0  0  0  0  0  0  0
   -2.6898   -2.0515    3.6508 H   0  0  0  0  0  0  0  0  0  0  0  0
   -1.5646    4.5881    0.5032 H   0  0  0  0  0  0  0  0  0  0  0  0
    1.9948   -3.4665   -2.4345 H   0  0  0  0  0  0  0  0  0  0  0  0
    4.4529   -0.0567   -1.5217 H   0  0  0  0  0  0  0  0  0  0  0  0
    1.9440   -0.9105    1.8747 H   0  0  0  0  0  0  0  0  0  0  0  0
    5.5985    1.7046   -0.2299 H   0  0  0  0  0  0  0  0  0  0  0  0
    3.1077    0.8545    3.1666 H   0  0  0  0  0  0  0  0  0  0  0  0
    4.9343    2.1636    2.1156 H   0  0  0  0  0  0  0  0  0  0  0  0
  1  2  1  0  0  0  0
  1  3  1  0  0  0  0
  1  4  1  0  0  0  0
  2 10  1  0  0  0  0
  3 19  1  0  0  0  0
  4 36  1  0  0  0  0
  5  6  1  0  0  0  0
  5  7  1  0  0  0  0
  5 10  1  0  0  0  0
  5 25  1  0  0  0  0
  6  8  1  0  0  0  0
  6 11  2  0  0  0  0
  7  9  1  0  0  0  0
  7 12  2  0  0  0  0
  8  9  1  0  0  0  0
  8 13  2  0  0  0  0
  9 14  2  0  0  0  0
 10 26  1  0  0  0  0
 10 27  1  0  0  0  0
 11 15  1  0  0  0  0
 11 28  1  0  0  0  0
 12 16  1  0  0  0  0
 12 29  1  0  0  0  0
 13 17  1  0  0  0  0
 13 30  1  0  0  0  0
 14 18  1  0  0  0  0
 14 31  1  0  0  0  0
 15 17  2  0  0  0  0
 15 32  1  0  0  0  0
 16 18  2  0  0  0  0
 16 33  1  0  0  0  0
 17 34  1  0  0  0  0
 18 35  1  0  0  0  0
 19 20  2  0  0  0  0
 19 21  1  0  0  0  0
 20 22  1  0  0  0  0
 20 37  1  0  0  0  0
 21 23  2  0  0  0  0
 21 38  1  0  0  0  0
 22 24  2  0  0  0  0
 22 39  1  0  0  0  0
 23 24  1  0  0  0  0
 23 40  1  0  0  0  0
 24 41  1  0  0  0  0
M  END
> <PUBCHEM_COMPOUND_CID>
11186716

> <PUBCHEM_CONFORMER_RMSD>
0.8

> <PUBCHEM_CONFORMER_DIVERSEORDER>
1
10
17
39
83
63
37
4
13
5
76
47
38
16
73
22
23
20
64
9
43
79
45
78
7
69
19
44
42
24
55
81
61
21
34
14
77
54
30
66
11
60
35
28
36
32
8
27
75
6
41
15
56
74
48
2
67
58
49
65
25
12
80
59
29
18
53
57
51
52
68
26
3
46
40
71
33
62
31
70
50
72
82

> <PUBCHEM_MMFF94_PARTIAL_CHARGES>
36
1 0.3
10 0.28
11 -0.15
12 -0.15
13 -0.15
14 -0.15
15 -0.15
16 -0.15
17 -0.15
18 -0.15
19 0.08
2 -0.38
20 -0.15
21 -0.15
22 -0.15
23 -0.15
24 -0.15
28 0.15
29 0.15
3 -0.18
30 0.15
31 0.15
32 0.15
33 0.15
34 0.15
35 0.15
36 0.5
37 0.15
38 0.15
39 0.15
4 -0.6
40 0.15
41 0.15
5 0.29
6 -0.14
7 -0.14

> <PUBCHEM_EFFECTIVE_ROTOR_COUNT>
5.2

> <PUBCHEM_PHARMACOPHORE_FEATURES>
5
1 4 acceptor
5 5 6 7 8 9 rings
6 19 20 21 22 23 24 rings
6 6 8 11 13 15 17 rings
6 7 9 12 14 16 18 rings

> <PUBCHEM_HEAVY_ATOM_COUNT>
24

> <PUBCHEM_ATOM_DEF_STEREO_COUNT>
0

> <PUBCHEM_ATOM_UDEF_STEREO_COUNT>
1

> <PUBCHEM_BOND_DEF_STEREO_COUNT>
0

> <PUBCHEM_BOND_UDEF_STEREO_COUNT>
0

> <PUBCHEM_ISOTOPIC_ATOM_COUNT>
0

> <PUBCHEM_COMPONENT_COUNT>
1

> <PUBCHEM_CACTVS_TAUTO_COUNT>
2

> <PUBCHEM_CONFORMER_ID>
00AAB21C00000001

> <PUBCHEM_MMFF94_ENERGY>
75.2801

> <PUBCHEM_FEATURE_SELFOVERLAP>
25.534

> <PUBCHEM_SHAPE_FINGERPRINT>
10165383 225 17111049991266985669
10498660 4 17844785131852830268
11070050 100 17180271914984931729
11221954 11 18127686020277975556
11552529 35 17821720667947421482
12156800 1 12813808974230657892
12539773 59 16949997036902509707
12596599 1 16805314466920702426
12788726 201 18189034478635994577
128993 33 17346323699979506706
13224815 77 18201994456710285656
13583140 156 18337934758849021498
14081887 123 18113615711758537930
14279260 333 15625128420368365492
14468879 13 18270946952043111709
14840074 17 17980766261608082224
15295992 7 17837226873863682351
17974551 9 17899977136585958858
18219364 16 17775565312769514766
18981168 100 17988369156859196788
19930381 70 17557974057535013221
20600515 1 18114478841714225365
21421861 104 17398713415046731115
21475661 188 16765669195532246761
21864079 5 16559037103593478418
22956985 138 16454333085070905946
23419403 2 17537139721243698055
23557571 272 18261403255548990494
23728640 28 15286181901088569471
238 59 17272551855576336572
3187 122 18336829792016868321
3493558 16 15446010016542981989
35225 105 17824844251179012513
3797600 57 17825122638617588836
469060 322 17983273109353793118
6287921 2 17700715096704515688
81228 2 18189920642226919543
9981440 41 18056170549970767102

> <PUBCHEM_SHAPE_MULTIPOLES>
480.15
7.34
3.67
2.69
11.29
2.23
-0.05
0.22
3.41
-3.62
-0.38
-0.19
-1.16
2.25

> <PUBCHEM_SHAPE_SELFOVERLAP>
1048.471

> <PUBCHEM_SHAPE_VOLUME>
262.2

> <PUBCHEM_COORDINATE_TYPE>
2
5
10

$$$$
