11261358
  -OEChem-03052615003D

 73 76  0     1  0  0  0  0  0999 V2000
   -3.7536   -2.0031   -1.4143 S   0  0  0  0  0  0  0  0  0  0  0  0
   -1.9805   -2.2965    3.4206 O   0  0  0  0  0  0  0  0  0  0  0  0
   -0.7540   -3.3289    1.8001 O   0  0  0  0  0  0  0  0  0  0  0  0
   -4.8312   -2.5128   -0.5896 O   0  0  0  0  0  0  0  0  0  0  0  0
   -3.3850   -2.6720   -2.6466 O   0  0  0  0  0  0  0  0  0  0  0  0
    1.4067   -0.9251    2.7665 O   0  0  0  0  0  0  0  0  0  0  0  0
    4.6393    1.9938   -0.4982 O   0  0  0  0  0  0  0  0  0  0  0  0
    0.0253   -0.8584    0.8699 N   0  0  0  0  0  0  0  0  0  0  0  0
   -2.3607   -1.7888   -0.4539 N   0  0  2  0  0  0  0  0  0  0  0  0
   -1.2481   -0.9591    1.6214 C   0  0  2  0  0  0  0  0  0  0  0  0
   -2.4736   -0.8435    0.6879 C   0  0  0  0  0  0  0  0  0  0  0  0
   -0.0952   -0.7446   -0.5903 C   0  0  0  0  0  0  0  0  0  0  0  0
   -1.0505   -1.7864   -1.1562 C   0  0  0  0  0  0  0  0  0  0  0  0
   -1.3716    0.1241    2.7033 C   0  0  0  0  0  0  0  0  0  0  0  0
   -1.2808   -2.3267    2.2601 C   0  0  0  0  0  0  0  0  0  0  0  0
    1.2559   -0.8336    1.5488 C   0  0  0  0  0  0  0  0  0  0  0  0
   -1.3427    1.4994    2.1036 C   0  0  0  0  0  0  0  0  0  0  0  0
    2.4886   -0.6782    0.7615 C   0  0  0  0  0  0  0  0  0  0  0  0
   -4.1286   -0.3216   -1.8055 C   0  0  0  0  0  0  0  0  0  0  0  0
   -0.1269    2.1627    1.9381 C   0  0  0  0  0  0  0  0  0  0  0  0
   -2.5317    2.1145    1.7117 C   0  0  0  0  0  0  0  0  0  0  0  0
    6.0816   -0.2464   -1.5288 C   0  0  0  0  0  0  0  0  0  0  0  0
    4.8290   -0.3845   -0.7282 C   0  0  0  0  0  0  0  0  0  0  0  0
    2.9916    0.5956    0.4966 C   0  0  0  0  0  0  0  0  0  0  0  0
    3.1557   -1.8052    0.2814 C   0  0  0  0  0  0  0  0  0  0  0  0
    4.1619    0.7425   -0.2480 C   0  0  0  0  0  0  0  0  0  0  0  0
   -3.5843    0.2670   -2.9470 C   0  0  0  0  0  0  0  0  0  0  0  0
   -4.9692    0.4174   -0.9729 C   0  0  0  0  0  0  0  0  0  0  0  0
    4.3259   -1.6583   -0.4635 C   0  0  0  0  0  0  0  0  0  0  0  0
   -0.1003    3.4412    1.3808 C   0  0  0  0  0  0  0  0  0  0  0  0
   -2.5050    3.3928    1.1541 C   0  0  0  0  0  0  0  0  0  0  0  0
    6.6372   -1.6409   -1.9519 C   0  0  0  0  0  0  0  0  0  0  0  0
    7.1962    0.4775   -0.7124 C   0  0  0  0  0  0  0  0  0  0  0  0
    5.9414    0.5678   -2.8568 C   0  0  0  0  0  0  0  0  0  0  0  0
   -1.2892    4.0562    0.9887 C   0  0  0  0  0  0  0  0  0  0  0  0
   -3.8808    1.5946   -3.2559 C   0  0  0  0  0  0  0  0  0  0  0  0
   -5.2658    1.7449   -1.2819 C   0  0  0  0  0  0  0  0  0  0  0  0
   -4.7216    2.3335   -2.4236 C   0  0  0  0  0  0  0  0  0  0  0  0
    3.8944    3.0891    0.0304 C   0  0  0  0  0  0  0  0  0  0  0  0
   -2.5352    0.1493    0.2456 H   0  0  0  0  0  0  0  0  0  0  0  0
   -3.3942   -1.0527    1.2451 H   0  0  0  0  0  0  0  0  0  0  0  0
    0.8701   -0.8448   -1.0900 H   0  0  0  0  0  0  0  0  0  0  0  0
   -0.4543    0.2690   -0.8055 H   0  0  0  0  0  0  0  0  0  0  0  0
   -0.6184   -2.7879   -1.0470 H   0  0  0  0  0  0  0  0  0  0  0  0
   -1.1679   -1.5928   -2.2265 H   0  0  0  0  0  0  0  0  0  0  0  0
   -2.3199    0.0285    3.2520 H   0  0  0  0  0  0  0  0  0  0  0  0
   -0.6062    0.0462    3.4834 H   0  0  0  0  0  0  0  0  0  0  0  0
    0.7974    1.7277    2.2973 H   0  0  0  0  0  0  0  0  0  0  0  0
   -3.4906    1.6224    1.8519 H   0  0  0  0  0  0  0  0  0  0  0  0
   -2.0144   -3.1772    3.8510 H   0  0  0  0  0  0  0  0  0  0  0  0
    2.4390    1.4367    0.8901 H   0  0  0  0  0  0  0  0  0  0  0  0
    2.7703   -2.8017    0.4823 H   0  0  0  0  0  0  0  0  0  0  0  0
   -2.9240   -0.2877   -3.6072 H   0  0  0  0  0  0  0  0  0  0  0  0
   -5.4029   -0.0187   -0.0776 H   0  0  0  0  0  0  0  0  0  0  0  0
    4.7815   -2.5813   -0.8005 H   0  0  0  0  0  0  0  0  0  0  0  0
    0.8447    3.9642    1.2668 H   0  0  0  0  0  0  0  0  0  0  0  0
   -3.4313    3.8738    0.8536 H   0  0  0  0  0  0  0  0  0  0  0  0
    7.5641   -1.5238   -2.5286 H   0  0  0  0  0  0  0  0  0  0  0  0
    6.9005   -2.2621   -1.0873 H   0  0  0  0  0  0  0  0  0  0  0  0
    5.9415   -2.1859   -2.6011 H   0  0  0  0  0  0  0  0  0  0  0  0
    8.1536    0.4476   -1.2466 H   0  0  0  0  0  0  0  0  0  0  0  0
    6.9776    1.5315   -0.5204 H   0  0  0  0  0  0  0  0  0  0  0  0
    7.3466   -0.0124    0.2571 H   0  0  0  0  0  0  0  0  0  0  0  0
    6.8777    0.5669   -3.4270 H   0  0  0  0  0  0  0  0  0  0  0  0
    5.1606    0.1317   -3.4909 H   0  0  0  0  0  0  0  0  0  0  0  0
    5.6720    1.6134   -2.6819 H   0  0  0  0  0  0  0  0  0  0  0  0
   -1.2688    5.0533    0.5588 H   0  0  0  0  0  0  0  0  0  0  0  0
   -3.4558    2.0537   -4.1437 H   0  0  0  0  0  0  0  0  0  0  0  0
   -5.9185    2.3210   -0.6326 H   0  0  0  0  0  0  0  0  0  0  0  0
   -4.9514    3.3675   -2.6633 H   0  0  0  0  0  0  0  0  0  0  0  0
    2.8929    3.1454   -0.4093 H   0  0  0  0  0  0  0  0  0  0  0  0
    3.8718    3.0732    1.1254 H   0  0  0  0  0  0  0  0  0  0  0  0
    4.4194    4.0047   -0.2615 H   0  0  0  0  0  0  0  0  0  0  0  0
  1  4  2  0  0  0  0
  1  5  2  0  0  0  0
  1  9  1  0  0  0  0
  1 19  1  0  0  0  0
  2 15  1  0  0  0  0
  2 50  1  0  0  0  0
  3 15  2  0  0  0  0
  6 16  2  0  0  0  0
  7 26  1  0  0  0  0
  7 39  1  0  0  0  0
  8 10  1  0  0  0  0
  8 12  1  0  0  0  0
  8 16  1  0  0  0  0
  9 11  1  0  0  0  0
  9 13  1  0  0  0  0
 10 11  1  0  0  0  0
 10 14  1  0  0  0  0
 10 15  1  0  0  0  0
 11 40  1  0  0  0  0
 11 41  1  0  0  0  0
 12 13  1  0  0  0  0
 12 42  1  0  0  0  0
 12 43  1  0  0  0  0
 13 44  1  0  0  0  0
 13 45  1  0  0  0  0
 14 17  1  0  0  0  0
 14 46  1  0  0  0  0
 14 47  1  0  0  0  0
 16 18  1  0  0  0  0
 17 20  2  0  0  0  0
 17 21  1  0  0  0  0
 18 24  2  0  0  0  0
 18 25  1  0  0  0  0
 19 27  2  0  0  0  0
 19 28  1  0  0  0  0
 20 30  1  0  0  0  0
 20 48  1  0  0  0  0
 21 31  2  0  0  0  0
 21 49  1  0  0  0  0
 22 23  1  0  0  0  0
 22 32  1  0  0  0  0
 22 33  1  0  0  0  0
 22 34  1  0  0  0  0
 23 26  2  0  0  0  0
 23 29  1  0  0  0  0
 24 26  1  0  0  0  0
 24 51  1  0  0  0  0
 25 29  2  0  0  0  0
 25 52  1  0  0  0  0
 27 36  1  0  0  0  0
 27 53  1  0  0  0  0
 28 37  2  0  0  0  0
 28 54  1  0  0  0  0
 29 55  1  0  0  0  0
 30 35  2  0  0  0  0
 30 56  1  0  0  0  0
 31 35  1  0  0  0  0
 31 57  1  0  0  0  0
 32 58  1  0  0  0  0
 32 59  1  0  0  0  0
 32 60  1  0  0  0  0
 33 61  1  0  0  0  0
 33 62  1  0  0  0  0
 33 63  1  0  0  0  0
 34 64  1  0  0  0  0
 34 65  1  0  0  0  0
 34 66  1  0  0  0  0
 35 67  1  0  0  0  0
 36 38  2  0  0  0  0
 36 68  1  0  0  0  0
 37 38  1  0  0  0  0
 37 69  1  0  0  0  0
 38 70  1  0  0  0  0
 39 71  1  0  0  0  0
 39 72  1  0  0  0  0
 39 73  1  0  0  0  0
M  END
> <PUBCHEM_COMPOUND_CID>
11261358

> <PUBCHEM_CONFORMER_RMSD>
1.2

> <PUBCHEM_CONFORMER_DIVERSEORDER>
1
57
100
56
90
86
22
88
107
82
69
102
105
117
42
74
33
15
97
68
28
115
41
81
113
39
111
36
104
96
60
84
52
19
49
12
93
89
59
32
50
110
114
13
54
44
91
66
47
27
73
63
79
61
108
75
76
98
65
92
64
20
116
109
77
94
55
62
31
71
25
48
51
40
70
106
101
83
99
85
23
24
58
80
72
17
87
95
43
9
46
30
35
103
38
21
53
112
34
37
78
67
14
6
3
10
16
29
8
45
26
7
18
5
4
11
2

> <PUBCHEM_MMFF94_PARTIAL_CHARGES>
50
1 1.45
10 0.36
11 0.36
12 0.3
13 0.36
14 0.14
15 0.66
16 0.54
17 -0.14
18 0.09
19 -0.01
2 -0.65
20 -0.15
21 -0.15
22 0.14
23 -0.14
24 -0.15
25 -0.15
26 0.08
27 -0.15
28 -0.15
29 -0.15
3 -0.57
30 -0.15
31 -0.15
35 -0.15
36 -0.15
37 -0.15
38 -0.15
39 0.28
4 -0.65
48 0.15
49 0.15
5 -0.65
50 0.5
51 0.15
52 0.15
53 0.15
54 0.15
55 0.15
56 0.15
57 0.15
6 -0.57
67 0.15
68 0.15
69 0.15
7 -0.36
70 0.15
8 -0.66
9 -0.85

> <PUBCHEM_EFFECTIVE_ROTOR_COUNT>
10.2

> <PUBCHEM_PHARMACOPHORE_FEATURES>
12
1 2 acceptor
1 3 acceptor
1 4 acceptor
1 5 acceptor
1 6 acceptor
1 7 acceptor
3 2 3 15 anion
4 22 32 33 34 hydrophobe
6 17 20 21 30 31 35 rings
6 18 23 24 25 26 29 rings
6 19 27 28 36 37 38 rings
6 8 9 10 11 12 13 rings

> <PUBCHEM_HEAVY_ATOM_COUNT>
39

> <PUBCHEM_ATOM_DEF_STEREO_COUNT>
0

> <PUBCHEM_ATOM_UDEF_STEREO_COUNT>
1

> <PUBCHEM_BOND_DEF_STEREO_COUNT>
0

> <PUBCHEM_BOND_UDEF_STEREO_COUNT>
0

> <PUBCHEM_ISOTOPIC_ATOM_COUNT>
0

> <PUBCHEM_COMPONENT_COUNT>
1

> <PUBCHEM_CACTVS_TAUTO_COUNT>
1

> <PUBCHEM_CONFORMER_ID>
00ABD5AE00000001

> <PUBCHEM_MMFF94_ENERGY>
139.9524

> <PUBCHEM_FEATURE_SELFOVERLAP>
60.974

> <PUBCHEM_SHAPE_FINGERPRINT>
10483366 6 17988075596224641365
10577160 103 17845356878384850240
11285246 1 18341891870541986448
11477941 20 18059866056234803560
11513181 2 17695357975506955748
11578080 2 16226337984204012201
12633046 712 18043273296289989450
12633257 1 11530780188265489774
12788726 201 18341047415488788578
13636023 20 17985524866359885886
14020679 6 13984673550476748228
14347329 18 16950281828158507460
14415361 349 17267230112584089582
14537116 161 17912324760173166693
15274700 21 17968105244223639009
17492 54 18339070476919733737
18603816 31 15839323025948722238
19958102 18 17632016351855126174
21033650 10 18260541242701381635
22907989 373 17988926647708893537
23536364 44 18411133666893437421
255183 451 17629749335236282815
3027735 51 17203328845443363439
376196 1 14925603625686067671
4616759 239 11820710534454496708
46194498 28 17839435011440776231
5080951 261 15984826956749397306
5081480 168 17773860069388620133
563151 40 17058656149765631569
563151 74 14923943410530924776

> <PUBCHEM_SHAPE_MULTIPOLES>
761.27
13.67
4.03
3.48
19.76
2.72
-0.02
-1.26
-13.98
-2.94
0.94
-3.02
-0.74
0.18

> <PUBCHEM_SHAPE_SELFOVERLAP>
1628.298

> <PUBCHEM_SHAPE_VOLUME>
423.5

> <PUBCHEM_COORDINATE_TYPE>
2
5
10

$$$$
