11384730
  -OEChem-03052615063D

 79 83  0     1  0  0  0  0  0999 V2000
   -6.8322   -1.3979    0.7515 O   0  0  0  0  0  0  0  0  0  0  0  0
    0.7694    1.1000   -0.2917 C   0  0  1  0  0  0  0  0  0  0  0  0
    1.6055   -0.2564   -0.2007 C   0  0  2  0  0  0  0  0  0  0  0  0
   -0.7552    0.8161    0.0527 C   0  0  2  0  0  0  0  0  0  0  0  0
   -1.4595   -0.3007   -0.8182 C   0  0  1  0  0  0  0  0  0  0  0  0
    3.1163    0.0150   -0.6219 C   0  0  1  0  0  0  0  0  0  0  0  0
    3.8185    1.2591    0.0385 C   0  0  1  0  0  0  0  0  0  0  0  0
    0.9348   -1.2975   -1.1476 C   0  0  0  0  0  0  0  0  0  0  0  0
    1.4010    2.0786    0.7346 C   0  0  0  0  0  0  0  0  0  0  0  0
   -0.5475   -1.5647   -0.8338 C   0  0  0  0  0  0  0  0  0  0  0  0
   -2.8321   -0.6405   -0.0924 C   0  0  1  0  0  0  0  0  0  0  0  0
    2.8634    2.4201    0.4471 C   0  0  0  0  0  0  0  0  0  0  0  0
   -1.6601    2.0599    0.1880 C   0  0  0  0  0  0  0  0  0  0  0  0
   -3.7895    0.5841    0.1761 C   0  0  2  0  0  0  0  0  0  0  0  0
    4.0580   -1.2327   -0.6882 C   0  0  0  0  0  0  0  0  0  0  0  0
    0.8627    1.7854   -1.6862 C   0  0  0  0  0  0  0  0  0  0  0  0
   -2.9866    1.7087    0.8739 C   0  0  0  0  0  0  0  0  0  0  0  0
    1.5656   -0.8834    1.2179 C   0  0  0  0  0  0  0  0  0  0  0  0
    4.6569    0.8631    1.2799 C   0  0  0  0  0  0  0  0  0  0  0  0
    5.1015   -1.5043    0.4332 C   0  0  0  0  0  0  0  0  0  0  0  0
   -1.7151    0.0863   -2.2969 C   0  0  0  0  0  0  0  0  0  0  0  0
    5.7015   -0.2113    1.0003 C   0  0  0  0  0  0  0  0  0  0  0  0
    4.8043    1.8665   -1.0094 C   0  0  0  0  0  0  0  0  0  0  0  0
   -4.9212    0.0534    1.1318 C   0  0  2  0  0  0  0  0  0  0  0  0
   -3.6077   -1.8128   -0.6560 C   0  0  0  0  0  0  0  0  0  0  0  0
   -4.4376    1.1802   -1.1014 C   0  0  0  0  0  0  0  0  0  0  0  0
    6.2480   -2.3468   -0.1793 C   0  0  0  0  0  0  0  0  0  0  0  0
    4.5254   -2.3467    1.5872 C   0  0  0  0  0  0  0  0  0  0  0  0
   -5.6549   -1.1380    0.5056 C   0  0  0  0  0  0  0  0  0  0  0  0
   -4.8968   -2.0477   -0.3880 C   0  0  0  0  0  0  0  0  0  0  0  0
   -5.9370    1.1049    1.5932 C   0  0  0  0  0  0  0  0  0  0  0  0
   -0.7351    0.4246    1.0779 H   0  0  0  0  0  0  0  0  0  0  0  0
    3.0115    0.2785   -1.6859 H   0  0  0  0  0  0  0  0  0  0  0  0
    1.4432   -2.2656   -1.0768 H   0  0  0  0  0  0  0  0  0  0  0  0
    1.0488   -0.9935   -2.1931 H   0  0  0  0  0  0  0  0  0  0  0  0
    1.3070    1.6915    1.7549 H   0  0  0  0  0  0  0  0  0  0  0  0
    0.8606    3.0318    0.7384 H   0  0  0  0  0  0  0  0  0  0  0  0
   -0.9124   -2.2855   -1.5766 H   0  0  0  0  0  0  0  0  0  0  0  0
   -0.6177   -2.0853    0.1289 H   0  0  0  0  0  0  0  0  0  0  0  0
   -2.5191   -0.9984    0.9037 H   0  0  0  0  0  0  0  0  0  0  0  0
    2.8643    3.1909   -0.3354 H   0  0  0  0  0  0  0  0  0  0  0  0
    3.2643    2.9488    1.3228 H   0  0  0  0  0  0  0  0  0  0  0  0
   -1.8452    2.5364   -0.7779 H   0  0  0  0  0  0  0  0  0  0  0  0
   -1.1839    2.8206    0.8128 H   0  0  0  0  0  0  0  0  0  0  0  0
    3.4882   -2.1483   -0.8699 H   0  0  0  0  0  0  0  0  0  0  0  0
    4.6301   -1.0977   -1.6192 H   0  0  0  0  0  0  0  0  0  0  0  0
    0.5996    1.1245   -2.5088 H   0  0  0  0  0  0  0  0  0  0  0  0
    0.2137    2.6654   -1.7396 H   0  0  0  0  0  0  0  0  0  0  0  0
    1.8655    2.1417   -1.9289 H   0  0  0  0  0  0  0  0  0  0  0  0
   -2.7678    1.4106    1.9083 H   0  0  0  0  0  0  0  0  0  0  0  0
   -3.5868    2.6243    0.9424 H   0  0  0  0  0  0  0  0  0  0  0  0
    0.5602   -0.9793    1.6317 H   0  0  0  0  0  0  0  0  0  0  0  0
    1.9558   -1.9038    1.1958 H   0  0  0  0  0  0  0  0  0  0  0  0
    2.1347   -0.3132    1.9499 H   0  0  0  0  0  0  0  0  0  0  0  0
    4.0098    0.5458    2.1014 H   0  0  0  0  0  0  0  0  0  0  0  0
    5.1885    1.7462    1.6609 H   0  0  0  0  0  0  0  0  0  0  0  0
   -0.9152   -0.2505   -2.9628 H   0  0  0  0  0  0  0  0  0  0  0  0
   -2.6208   -0.3847   -2.6925 H   0  0  0  0  0  0  0  0  0  0  0  0
   -1.8108    1.1623   -2.4481 H   0  0  0  0  0  0  0  0  0  0  0  0
    6.4596    0.1877    0.3160 H   0  0  0  0  0  0  0  0  0  0  0  0
    6.2457   -0.4245    1.9302 H   0  0  0  0  0  0  0  0  0  0  0  0
    5.5088    1.1285   -1.4037 H   0  0  0  0  0  0  0  0  0  0  0  0
    4.2641    2.2710   -1.8731 H   0  0  0  0  0  0  0  0  0  0  0  0
    5.3867    2.6867   -0.5737 H   0  0  0  0  0  0  0  0  0  0  0  0
   -4.4472   -0.3409    2.0426 H   0  0  0  0  0  0  0  0  0  0  0  0
   -3.0926   -2.5297   -1.2874 H   0  0  0  0  0  0  0  0  0  0  0  0
   -3.7158    1.6727   -1.7521 H   0  0  0  0  0  0  0  0  0  0  0  0
   -4.9598    0.4300   -1.7017 H   0  0  0  0  0  0  0  0  0  0  0  0
   -5.1669    1.9576   -0.8505 H   0  0  0  0  0  0  0  0  0  0  0  0
    7.0196   -2.5724    0.5659 H   0  0  0  0  0  0  0  0  0  0  0  0
    5.8714   -3.2985   -0.5714 H   0  0  0  0  0  0  0  0  0  0  0  0
    6.7368   -1.8159   -1.0043 H   0  0  0  0  0  0  0  0  0  0  0  0
    3.9708   -3.2133    1.2117 H   0  0  0  0  0  0  0  0  0  0  0  0
    5.3266   -2.7310    2.2306 H   0  0  0  0  0  0  0  0  0  0  0  0
    3.8711   -1.7683    2.2405 H   0  0  0  0  0  0  0  0  0  0  0  0
   -5.4129   -2.9066   -0.8006 H   0  0  0  0  0  0  0  0  0  0  0  0
   -6.5748    1.4488    0.7730 H   0  0  0  0  0  0  0  0  0  0  0  0
   -6.6043    0.6800    2.3524 H   0  0  0  0  0  0  0  0  0  0  0  0
   -5.4505    1.9717    2.0480 H   0  0  0  0  0  0  0  0  0  0  0  0
  1 29  2  0  0  0  0
  2  3  1  0  0  0  0
  2  4  1  0  0  0  0
  2  9  1  0  0  0  0
  2 16  1  0  0  0  0
  3  6  1  0  0  0  0
  3  8  1  0  0  0  0
  3 18  1  0  0  0  0
  4  5  1  0  0  0  0
  4 13  1  0  0  0  0
  4 32  1  0  0  0  0
  5 10  1  0  0  0  0
  5 11  1  0  0  0  0
  5 21  1  0  0  0  0
  6  7  1  0  0  0  0
  6 15  1  0  0  0  0
  6 33  1  0  0  0  0
  7 12  1  0  0  0  0
  7 19  1  0  0  0  0
  7 23  1  0  0  0  0
  8 10  1  0  0  0  0
  8 34  1  0  0  0  0
  8 35  1  0  0  0  0
  9 12  1  0  0  0  0
  9 36  1  0  0  0  0
  9 37  1  0  0  0  0
 10 38  1  0  0  0  0
 10 39  1  0  0  0  0
 11 14  1  0  0  0  0
 11 25  1  0  0  0  0
 11 40  1  0  0  0  0
 12 41  1  0  0  0  0
 12 42  1  0  0  0  0
 13 17  1  0  0  0  0
 13 43  1  0  0  0  0
 13 44  1  0  0  0  0
 14 17  1  0  0  0  0
 14 24  1  0  0  0  0
 14 26  1  0  0  0  0
 15 20  1  0  0  0  0
 15 45  1  0  0  0  0
 15 46  1  0  0  0  0
 16 47  1  0  0  0  0
 16 48  1  0  0  0  0
 16 49  1  0  0  0  0
 17 50  1  0  0  0  0
 17 51  1  0  0  0  0
 18 52  1  0  0  0  0
 18 53  1  0  0  0  0
 18 54  1  0  0  0  0
 19 22  1  0  0  0  0
 19 55  1  0  0  0  0
 19 56  1  0  0  0  0
 20 22  1  0  0  0  0
 20 27  1  0  0  0  0
 20 28  1  0  0  0  0
 21 57  1  0  0  0  0
 21 58  1  0  0  0  0
 21 59  1  0  0  0  0
 22 60  1  0  0  0  0
 22 61  1  0  0  0  0
 23 62  1  0  0  0  0
 23 63  1  0  0  0  0
 23 64  1  0  0  0  0
 24 29  1  0  0  0  0
 24 31  1  0  0  0  0
 24 65  1  0  0  0  0
 25 30  2  0  0  0  0
 25 66  1  0  0  0  0
 26 67  1  0  0  0  0
 26 68  1  0  0  0  0
 26 69  1  0  0  0  0
 27 70  1  0  0  0  0
 27 71  1  0  0  0  0
 27 72  1  0  0  0  0
 28 73  1  0  0  0  0
 28 74  1  0  0  0  0
 28 75  1  0  0  0  0
 29 30  1  0  0  0  0
 30 76  1  0  0  0  0
 31 77  1  0  0  0  0
 31 78  1  0  0  0  0
 31 79  1  0  0  0  0
M  END
> <PUBCHEM_COMPOUND_CID>
11384730

> <PUBCHEM_CONFORMER_RMSD>
0.8

> <PUBCHEM_CONFORMER_DIVERSEORDER>
1

> <PUBCHEM_MMFF94_PARTIAL_CHARGES>
8
1 -0.57
11 0.14
24 0.06
25 -0.29
29 0.49
30 -0.14
66 0.15
76 0.15

> <PUBCHEM_EFFECTIVE_ROTOR_COUNT>
2.2

> <PUBCHEM_PHARMACOPHORE_FEATURES>
7
1 1 acceptor
3 20 27 28 hydrophobe
6 11 14 24 25 29 30 rings
6 2 3 4 5 8 10 rings
6 2 3 6 7 9 12 rings
6 4 5 11 13 14 17 rings
6 6 7 15 19 20 22 rings

> <PUBCHEM_HEAVY_ATOM_COUNT>
31

> <PUBCHEM_ATOM_DEF_STEREO_COUNT>
9

> <PUBCHEM_ATOM_UDEF_STEREO_COUNT>
0

> <PUBCHEM_BOND_DEF_STEREO_COUNT>
0

> <PUBCHEM_BOND_UDEF_STEREO_COUNT>
0

> <PUBCHEM_ISOTOPIC_ATOM_COUNT>
0

> <PUBCHEM_COMPONENT_COUNT>
1

> <PUBCHEM_CACTVS_TAUTO_COUNT>
5

> <PUBCHEM_CONFORMER_ID>
00ADB79A00000001

> <PUBCHEM_MMFF94_ENERGY>
165.4364

> <PUBCHEM_FEATURE_SELFOVERLAP>
35.581

> <PUBCHEM_SHAPE_FINGERPRINT>
10 15 18059859476059322731
10076449 9 18339651049682892838
10319926 262 17989211403929588411
11456790 92 18130801049279711025
117089 54 17909272378319077046
12107183 9 18198069079708205617
12166972 35 18113343015505355628
12236239 1 18408327696102826449
12422481 6 18131354072482470591
12596602 18 18344146994591670659
12616971 3 18202278117329484367
12633257 1 18271811194358185161
12788726 201 17632588141036196784
13140716 1 18272370905937978593
13224815 77 18343304790592205181
13533116 47 18336547209033255202
13583140 156 18114167597944692021
13782708 43 17603301531484615139
14341114 176 18411419522478197339
14341114 328 18411986896627676649
14849402 71 18268428109129269064
14955137 171 18202284658986734120
15183329 4 18343586252214353237
15196674 1 18413671326639655877
15238133 3 17131840832672141993
15250474 111 18199740517481349414
15788980 27 17967247585491640548
15799311 1 18188504561028107586
17349148 13 17967538973221189301
17844677 252 18113618975654354932
17857418 61 18412541037513697907
1813 80 17676203572460196636
18222031 100 16008750220967124286
1979834 28 17346322583467501190
20028762 73 18342175566006947662
21130935 74 18272371974931759147
21267235 1 18341054043383163014
21424621 283 13110700341161169291
21792934 111 18343025489512349529
21859007 373 18117839894253102773
22393880 68 17968366862706631709
23522609 53 18122659186181363001
23559900 14 18341603802827295696
23569943 247 17823411591697070162
2838139 119 10951783957990662723
3004659 81 18335141982055362510
350125 39 18343305880965473416
3633792 109 18335687340229259447
3680242 22 18343028773985957258
392239 28 18272098201474423379
4073 2 18117002288896937394
4093350 32 16630246996453642952
46194498 28 17240761809580083396
465052 167 18411984637759923510
5104073 3 18272932734498715443
513202 73 17822569409171784509
54039377 194 18262800650131879906
6081469 158 18260822718785764759
6086070 43 18265310894732180469
6669772 16 12397740773382761302

> <PUBCHEM_SHAPE_MULTIPOLES>
632.1
15.02
2.62
1.51
4.15
0.01
-0.21
5.79
5.01
-1.43
0.12
0.21
-0.09
-0.88

> <PUBCHEM_SHAPE_SELFOVERLAP>
1337.068

> <PUBCHEM_SHAPE_VOLUME>
349.5

> <PUBCHEM_COORDINATE_TYPE>
2
5
10

$$$$
