11394145
  -OEChem-03052615013D

 49 50  0     1  0  0  0  0  0999 V2000
   -1.2867   -2.4347   -0.6862 S   0  0  0  0  0  0  0  0  0  0  0  0
   -5.4476   -0.0487   -0.2696 O   0  0  0  0  0  0  0  0  0  0  0  0
    7.8217    2.0779   -1.2180 O   0  0  0  0  0  0  0  0  0  0  0  0
    6.7945    2.2736    0.7982 O   0  0  0  0  0  0  0  0  0  0  0  0
   -3.7601    1.3853    0.2928 O   0  0  0  0  0  0  0  0  0  0  0  0
    3.1342   -1.2777    0.9170 N   0  0  2  0  0  0  0  0  0  0  0  0
   -1.1241    0.0234    0.0765 N   0  0  0  0  0  0  0  0  0  0  0  0
   -3.3335   -0.8353   -0.3504 N   0  0  0  0  0  0  0  0  0  0  0  0
    2.4361   -2.5452    0.6798 C   0  0  0  0  0  0  0  0  0  0  0  0
    2.2814   -0.1794    1.3823 C   0  0  0  0  0  0  0  0  0  0  0  0
    1.5031   -2.6266   -0.5369 C   0  0  0  0  0  0  0  0  0  0  0  0
    1.2987    0.4293    0.3736 C   0  0  0  0  0  0  0  0  0  0  0  0
    4.0423   -0.8991   -0.1577 C   0  0  0  0  0  0  0  0  0  0  0  0
    0.2728   -1.7971   -0.3725 C   0  0  0  0  0  0  0  0  0  0  0  0
    0.1676   -0.4747    0.0212 C   0  0  0  0  0  0  0  0  0  0  0  0
    4.9948    0.1993    0.3168 C   0  0  0  0  0  0  0  0  0  0  0  0
    5.9728    0.6326   -0.7711 C   0  0  0  0  0  0  0  0  0  0  0  0
   -1.9685   -0.9195   -0.2737 C   0  0  0  0  0  0  0  0  0  0  0  0
   -6.3980    0.9946   -0.0238 C   0  0  0  0  0  0  0  0  0  0  0  0
    6.8906    1.7315   -0.2956 C   0  0  0  0  0  0  0  0  0  0  0  0
   -6.2820    1.4237    1.4382 C   0  0  0  0  0  0  0  0  0  0  0  0
   -7.7872    0.4279   -0.3085 C   0  0  0  0  0  0  0  0  0  0  0  0
   -6.0914    2.1623   -0.9604 C   0  0  0  0  0  0  0  0  0  0  0  0
   -4.1313    0.2765   -0.0720 C   0  0  0  0  0  0  0  0  0  0  0  0
    1.8813   -2.8215    1.5867 H   0  0  0  0  0  0  0  0  0  0  0  0
    3.1972   -3.3291    0.5698 H   0  0  0  0  0  0  0  0  0  0  0  0
    1.7092   -0.5429    2.2483 H   0  0  0  0  0  0  0  0  0  0  0  0
    2.8905    0.6226    1.8116 H   0  0  0  0  0  0  0  0  0  0  0  0
    2.0254   -2.3273   -1.4528 H   0  0  0  0  0  0  0  0  0  0  0  0
    1.2295   -3.6803   -0.6776 H   0  0  0  0  0  0  0  0  0  0  0  0
    0.8838    1.3415    0.8222 H   0  0  0  0  0  0  0  0  0  0  0  0
    1.8092    0.7544   -0.5392 H   0  0  0  0  0  0  0  0  0  0  0  0
    3.5108   -0.5767   -1.0597 H   0  0  0  0  0  0  0  0  0  0  0  0
    4.6514   -1.7655   -0.4461 H   0  0  0  0  0  0  0  0  0  0  0  0
    4.4442    1.0977    0.6146 H   0  0  0  0  0  0  0  0  0  0  0  0
    5.5513   -0.1422    1.1994 H   0  0  0  0  0  0  0  0  0  0  0  0
    6.5898   -0.2205   -1.0737 H   0  0  0  0  0  0  0  0  0  0  0  0
    5.4236    1.0030   -1.6436 H   0  0  0  0  0  0  0  0  0  0  0  0
   -3.8092   -1.6838   -0.6445 H   0  0  0  0  0  0  0  0  0  0  0  0
   -5.4187    2.0555    1.6613 H   0  0  0  0  0  0  0  0  0  0  0  0
   -7.1601    2.0095    1.7352 H   0  0  0  0  0  0  0  0  0  0  0  0
   -6.2223    0.5511    2.0990 H   0  0  0  0  0  0  0  0  0  0  0  0
   -8.5735    1.1712   -0.1412 H   0  0  0  0  0  0  0  0  0  0  0  0
   -7.8579    0.0756   -1.3440 H   0  0  0  0  0  0  0  0  0  0  0  0
   -7.9902   -0.4407    0.3285 H   0  0  0  0  0  0  0  0  0  0  0  0
   -5.2452    2.7826   -0.6544 H   0  0  0  0  0  0  0  0  0  0  0  0
   -6.9490    2.8437   -1.0140 H   0  0  0  0  0  0  0  0  0  0  0  0
   -5.8824    1.8070   -1.9762 H   0  0  0  0  0  0  0  0  0  0  0  0
    8.4026    2.8010   -0.8986 H   0  0  0  0  0  0  0  0  0  0  0  0
  1 14  1  0  0  0  0
  1 18  1  0  0  0  0
  2 19  1  0  0  0  0
  2 24  1  0  0  0  0
  3 20  1  0  0  0  0
  3 49  1  0  0  0  0
  4 20  2  0  0  0  0
  5 24  2  0  0  0  0
  6  9  1  0  0  0  0
  6 10  1  0  0  0  0
  6 13  1  0  0  0  0
  7 15  1  0  0  0  0
  7 18  2  0  0  0  0
  8 18  1  0  0  0  0
  8 24  1  0  0  0  0
  8 39  1  0  0  0  0
  9 11  1  0  0  0  0
  9 25  1  0  0  0  0
  9 26  1  0  0  0  0
 10 12  1  0  0  0  0
 10 27  1  0  0  0  0
 10 28  1  0  0  0  0
 11 14  1  0  0  0  0
 11 29  1  0  0  0  0
 11 30  1  0  0  0  0
 12 15  1  0  0  0  0
 12 31  1  0  0  0  0
 12 32  1  0  0  0  0
 13 16  1  0  0  0  0
 13 33  1  0  0  0  0
 13 34  1  0  0  0  0
 14 15  2  0  0  0  0
 16 17  1  0  0  0  0
 16 35  1  0  0  0  0
 16 36  1  0  0  0  0
 17 20  1  0  0  0  0
 17 37  1  0  0  0  0
 17 38  1  0  0  0  0
 19 21  1  0  0  0  0
 19 22  1  0  0  0  0
 19 23  1  0  0  0  0
 21 40  1  0  0  0  0
 21 41  1  0  0  0  0
 21 42  1  0  0  0  0
 22 43  1  0  0  0  0
 22 44  1  0  0  0  0
 22 45  1  0  0  0  0
 23 46  1  0  0  0  0
 23 47  1  0  0  0  0
 23 48  1  0  0  0  0
M  END
> <PUBCHEM_COMPOUND_CID>
11394145

> <PUBCHEM_CONFORMER_RMSD>
1

> <PUBCHEM_CONFORMER_DIVERSEORDER>
1
41
59
50
21
49
45
9
30
60
75
85
44
98
18
25
43
95
84
77
89
53
64
13
66
27
55
31
100
54
76
28
12
32
37
48
17
71
68
83
93
42
23
90
70
74
4
63
46
52
80
91
47
72
34
78
81
35
57
99
38
58
73
101
16
96
87
94
3
79
26
86
56
11
39
14
82
10
102
29
5
7
20
69
24
67
51
15
62
22
97
65
92
61
6
40
88
8
36
19
2
33

> <PUBCHEM_MMFF94_PARTIAL_CHARGES>
22
1 -0.08
10 0.27
11 0.18
12 0.18
13 0.27
14 -0.14
15 0.05
17 0.06
18 0.44
19 0.28
2 -0.43
20 0.66
24 0.78
3 -0.65
39 0.37
4 -0.57
49 0.5
5 -0.57
6 -0.81
7 -0.57
8 -0.49
9 0.27

> <PUBCHEM_EFFECTIVE_ROTOR_COUNT>
9

> <PUBCHEM_PHARMACOPHORE_FEATURES>
9
1 3 acceptor
1 4 acceptor
1 5 acceptor
1 6 cation
1 8 donor
3 3 4 20 anion
4 19 21 22 23 hydrophobe
5 1 7 14 15 18 rings
7 6 9 10 11 12 14 15 rings

> <PUBCHEM_HEAVY_ATOM_COUNT>
24

> <PUBCHEM_ATOM_DEF_STEREO_COUNT>
0

> <PUBCHEM_ATOM_UDEF_STEREO_COUNT>
0

> <PUBCHEM_BOND_DEF_STEREO_COUNT>
0

> <PUBCHEM_BOND_UDEF_STEREO_COUNT>
0

> <PUBCHEM_ISOTOPIC_ATOM_COUNT>
0

> <PUBCHEM_COMPONENT_COUNT>
1

> <PUBCHEM_CACTVS_TAUTO_COUNT>
3

> <PUBCHEM_CONFORMER_ID>
00ADDC6100000001

> <PUBCHEM_MMFF94_ENERGY>
45.3972

> <PUBCHEM_FEATURE_SELFOVERLAP>
45.752

> <PUBCHEM_SHAPE_FINGERPRINT>
10 15 18113618988955611353
10066227 112 18412543210593212844
10554248 39 18268694031306552342
106641 1 17748831834834395347
10816530 90 18271235119381139368
10906281 52 18202009789575168923
11796584 16 13326556463398289486
12596602 18 17604149225528015553
12760667 363 8790886281084976783
12895836 83 18341891930845627626
13540713 5 18266718299554754770
13668630 136 12391510884253367309
14251757 52 18334574633570497064
14251764 18 18335979839695681587
14565420 104 17894627046386434218
14849402 71 18342741827965379169
14931854 50 17632860797785366728
15048467 5 18408322198607731260
15183329 4 15913334580428520446
15188451 53 9079123245911699414
15778101 99 18409731807096318254
15840311 113 18259707783191846790
18335252 114 18411416203302109508
19427546 20 18270114750970141559
2026 5 10303815367638117181
20281389 69 18261107452624657916
20526848 3 18409169926462821844
21033650 10 15267075713983102523
21095123 293 17749114422250666052
21150785 3 17489869349347828629
21298829 104 18335422417719215796
21585482 111 18188207585520402652
22224240 67 16370724842046442163
23559900 14 17274812601563975219
270888 7 18409447012120144990
293599 30 18411981395122911922
3472631 163 18342178899401677222
3545911 37 18201433654546688011
4073 2 18333734611594182891
4169191 19 18408322168722906149
4340502 62 16515402954569809162
445580 126 18408314493974609096
5104073 3 14274277156495525244
5758199 1 18413392029670183361
58260988 393 16081359718624439484
59682541 52 16128661851745049796
6328613 192 18342177769155488448
6438161 24 10015579489067893796

> <PUBCHEM_SHAPE_MULTIPOLES>
459.34
21.45
2.69
1.03
2.33
0.66
0.15
-20.77
-2.55
-2.53
-0.35
-0.18
-0.2
-0.97

> <PUBCHEM_SHAPE_SELFOVERLAP>
926.639

> <PUBCHEM_SHAPE_VOLUME>
270.1

> <PUBCHEM_COORDINATE_TYPE>
2
5
10

$$$$
