11462002
  -OEChem-03052615043D

 47 50  0     1  0  0  0  0  0999 V2000
    3.1350   -0.5201    0.0731 O   0  0  0  0  0  0  0  0  0  0  0  0
    2.8758    1.7798    0.4610 O   0  0  0  0  0  0  0  0  0  0  0  0
    0.1301   -3.8505   -0.3824 O   0  0  0  0  0  0  0  0  0  0  0  0
   -0.0320   -2.2445    1.2514 O   0  0  0  0  0  0  0  0  0  0  0  0
    0.6486   -1.7353   -0.9064 N   0  0  0  0  0  0  0  0  0  0  0  0
   -3.7009   -0.1228   -1.2764 N   0  0  0  0  0  0  0  0  0  0  0  0
    2.3300    0.0336   -0.9768 C   0  0  1  0  0  0  0  0  0  0  0  0
    0.8524   -0.3110   -0.7278 C   0  0  1  0  0  0  0  0  0  0  0  0
    2.6190    1.5259   -0.9221 C   0  0  1  0  0  0  0  0  0  0  0  0
   -0.0905    0.4974   -1.6579 C   0  0  2  0  0  0  0  0  0  0  0  0
    3.4501    0.5644    0.9567 C   0  0  0  0  0  0  0  0  0  0  0  0
    1.5171    2.4097   -1.4014 C   0  0  0  0  0  0  0  0  0  0  0  0
    0.3134    1.9505   -1.7672 C   0  0  0  0  0  0  0  0  0  0  0  0
   -1.5447    0.3603   -1.2388 C   0  0  0  0  0  0  0  0  0  0  0  0
    4.9683    0.7117    1.0142 C   0  0  0  0  0  0  0  0  0  0  0  0
    2.8838    0.2776    2.3408 C   0  0  0  0  0  0  0  0  0  0  0  0
   -2.1015    0.7673   -0.0011 C   0  0  0  0  0  0  0  0  0  0  0  0
   -2.5429   -0.1823   -2.0043 C   0  0  0  0  0  0  0  0  0  0  0  0
   -3.4612    0.4524   -0.0488 C   0  0  0  0  0  0  0  0  0  0  0  0
    0.2248   -2.5749    0.0984 C   0  0  0  0  0  0  0  0  0  0  0  0
   -1.5865    1.3747    1.1614 C   0  0  0  0  0  0  0  0  0  0  0  0
   -4.3351    0.7154    1.0121 C   0  0  0  0  0  0  0  0  0  0  0  0
   -2.4489    1.6435    2.2306 C   0  0  0  0  0  0  0  0  0  0  0  0
   -3.8017    1.3182    2.1549 C   0  0  0  0  0  0  0  0  0  0  0  0
   -0.3026   -4.8412    0.5568 C   0  0  0  0  0  0  0  0  0  0  0  0
    2.6572   -0.3933   -1.9327 H   0  0  0  0  0  0  0  0  0  0  0  0
    0.6282   -0.0857    0.3185 H   0  0  0  0  0  0  0  0  0  0  0  0
    3.5378    1.7507   -1.4775 H   0  0  0  0  0  0  0  0  0  0  0  0
   -0.0061    0.0839   -2.6746 H   0  0  0  0  0  0  0  0  0  0  0  0
    1.7252    3.4724   -1.4886 H   0  0  0  0  0  0  0  0  0  0  0  0
   -0.4147    2.6583   -2.1566 H   0  0  0  0  0  0  0  0  0  0  0  0
    0.8266   -2.1372   -1.8220 H   0  0  0  0  0  0  0  0  0  0  0  0
    5.4417   -0.2027    1.3870 H   0  0  0  0  0  0  0  0  0  0  0  0
    5.3786    0.9010    0.0158 H   0  0  0  0  0  0  0  0  0  0  0  0
    5.2617    1.5542    1.6491 H   0  0  0  0  0  0  0  0  0  0  0  0
    1.7925    0.1934    2.3054 H   0  0  0  0  0  0  0  0  0  0  0  0
    3.2673   -0.6672    2.7396 H   0  0  0  0  0  0  0  0  0  0  0  0
    3.1182    1.0862    3.0411 H   0  0  0  0  0  0  0  0  0  0  0  0
   -2.5409   -0.6064   -2.9987 H   0  0  0  0  0  0  0  0  0  0  0  0
   -4.6018   -0.4533   -1.5935 H   0  0  0  0  0  0  0  0  0  0  0  0
   -0.5391    1.6492    1.2430 H   0  0  0  0  0  0  0  0  0  0  0  0
   -5.3884    0.4625    0.9541 H   0  0  0  0  0  0  0  0  0  0  0  0
   -2.0577    2.1141    3.1287 H   0  0  0  0  0  0  0  0  0  0  0  0
   -4.4537    1.5365    2.9969 H   0  0  0  0  0  0  0  0  0  0  0  0
   -1.3071   -4.6043    0.9204 H   0  0  0  0  0  0  0  0  0  0  0  0
    0.4049   -4.9084    1.3886 H   0  0  0  0  0  0  0  0  0  0  0  0
   -0.3335   -5.8057    0.0430 H   0  0  0  0  0  0  0  0  0  0  0  0
  1  7  1  0  0  0  0
  1 11  1  0  0  0  0
  2  9  1  0  0  0  0
  2 11  1  0  0  0  0
  3 20  1  0  0  0  0
  3 25  1  0  0  0  0
  4 20  2  0  0  0  0
  5  8  1  0  0  0  0
  5 20  1  0  0  0  0
  5 32  1  0  0  0  0
  6 18  1  0  0  0  0
  6 19  1  0  0  0  0
  6 40  1  0  0  0  0
  7  8  1  0  0  0  0
  7  9  1  0  0  0  0
  7 26  1  0  0  0  0
  8 10  1  0  0  0  0
  8 27  1  0  0  0  0
  9 12  1  0  0  0  0
  9 28  1  0  0  0  0
 10 13  1  0  0  0  0
 10 14  1  0  0  0  0
 10 29  1  0  0  0  0
 11 15  1  0  0  0  0
 11 16  1  0  0  0  0
 12 13  2  0  0  0  0
 12 30  1  0  0  0  0
 13 31  1  0  0  0  0
 14 17  1  0  0  0  0
 14 18  2  0  0  0  0
 15 33  1  0  0  0  0
 15 34  1  0  0  0  0
 15 35  1  0  0  0  0
 16 36  1  0  0  0  0
 16 37  1  0  0  0  0
 16 38  1  0  0  0  0
 17 19  1  0  0  0  0
 17 21  2  0  0  0  0
 18 39  1  0  0  0  0
 19 22  2  0  0  0  0
 21 23  1  0  0  0  0
 21 41  1  0  0  0  0
 22 24  1  0  0  0  0
 22 42  1  0  0  0  0
 23 24  2  0  0  0  0
 23 43  1  0  0  0  0
 24 44  1  0  0  0  0
 25 45  1  0  0  0  0
 25 46  1  0  0  0  0
 25 47  1  0  0  0  0
M  END
> <PUBCHEM_COMPOUND_CID>
11462002

> <PUBCHEM_CONFORMER_RMSD>
0.8

> <PUBCHEM_CONFORMER_DIVERSEORDER>
1
22
18
21
24
19
3
26
23
9
25
17
5
14
4
15
12
13
6
2
20
7
27
8
16
11
10

> <PUBCHEM_MMFF94_PARTIAL_CHARGES>
31
1 -0.56
10 0.32
11 0.56
12 -0.29
13 -0.29
14 -0.18
18 -0.3
19 -0.15
2 -0.56
20 0.78
21 -0.15
22 -0.15
23 -0.15
24 -0.15
25 0.28
3 -0.43
30 0.15
31 0.15
32 0.37
39 0.15
4 -0.57
40 0.27
41 0.15
42 0.15
43 0.15
44 0.15
5 -0.73
6 0.03
7 0.28
8 0.3
9 0.42

> <PUBCHEM_EFFECTIVE_ROTOR_COUNT>
5

> <PUBCHEM_PHARMACOPHORE_FEATURES>
11
1 1 acceptor
1 2 acceptor
1 4 acceptor
1 5 donor
1 6 cation
1 6 donor
3 11 15 16 hydrophobe
5 1 2 7 9 11 rings
5 6 14 17 18 19 rings
6 17 19 21 22 23 24 rings
6 7 8 9 10 12 13 rings

> <PUBCHEM_HEAVY_ATOM_COUNT>
25

> <PUBCHEM_ATOM_DEF_STEREO_COUNT>
4

> <PUBCHEM_ATOM_UDEF_STEREO_COUNT>
0

> <PUBCHEM_BOND_DEF_STEREO_COUNT>
0

> <PUBCHEM_BOND_UDEF_STEREO_COUNT>
0

> <PUBCHEM_ISOTOPIC_ATOM_COUNT>
0

> <PUBCHEM_COMPONENT_COUNT>
1

> <PUBCHEM_CACTVS_TAUTO_COUNT>
2

> <PUBCHEM_CONFORMER_ID>
00AEE57200000001

> <PUBCHEM_MMFF94_ENERGY>
47.0776

> <PUBCHEM_FEATURE_SELFOVERLAP>
56.121

> <PUBCHEM_SHAPE_FINGERPRINT>
10064457 181 18341342149240577322
10498660 4 16559034848767588841
10764073 3 13028789666443477631
10863032 1 16702302330130731780
10906281 52 17387405744828625605
11578080 2 18052528881629455061
11640471 11 17988650640584324501
12467345 10 17058934342854369838
12592029 89 17967798449881825199
12633257 1 17604166873211388417
12788726 201 17837496610700522319
13583140 156 18196672700426467009
13965767 371 17339874896858673241
14178342 30 18337966622979274723
14787075 74 17770480230478707207
15209289 33 18270408174603281070
15309172 13 18334286565903130028
20739085 24 18263093110916820668
23419403 2 15534941158618007020
26353 1 8917669888399280018
35225 105 17840619159346064091
392239 28 18058452165732531147
4340502 62 18338249202221341385
474 4 18343025484083517921
539174 4 18055908801483246513
6287921 2 18270125582867053643
7097593 13 17623302567607270619
9981440 41 17344615162247556024

> <PUBCHEM_SHAPE_MULTIPOLES>
481.05
7.06
3.58
2.25
0.46
6.77
-0.54
-3.85
-3.46
0.4
-0.28
-0.75
-1.04
-1

> <PUBCHEM_SHAPE_SELFOVERLAP>
1047.671

> <PUBCHEM_SHAPE_VOLUME>
262

> <PUBCHEM_COORDINATE_TYPE>
2
5
10

$$$$
