11470409
  -OEChem-03052615033D

 36 36  0     0  0  0  0  0  0999 V2000
    5.0721   -0.0747    0.7077 O   0  0  0  0  0  0  0  0  0  0  0  0
   -3.6074    0.8295    1.3474 O   0  0  0  0  0  0  0  0  0  0  0  0
   -5.9387   -0.3935    0.7818 O   0  0  0  0  0  0  0  0  0  0  0  0
   -4.8994   -0.3428   -0.1654 N   0  0  0  0  0  0  0  0  0  0  0  0
   -0.1765    0.2610   -1.3384 C   0  0  0  0  0  0  0  0  0  0  0  0
   -1.2707    0.3772   -0.2671 C   0  0  0  0  0  0  0  0  0  0  0  0
    1.2249    0.1654   -0.7926 C   0  0  0  0  0  0  0  0  0  0  0  0
   -2.6928    0.3375   -0.8320 C   0  0  0  0  0  0  0  0  0  0  0  0
    1.7648   -1.0810   -0.5118 C   0  0  0  0  0  0  0  0  0  0  0  0
    3.0620   -1.1683   -0.0063 C   0  0  0  0  0  0  0  0  0  0  0  0
    1.9527    1.3266   -0.5793 C   0  0  0  0  0  0  0  0  0  0  0  0
    3.8046   -0.0079    0.2127 C   0  0  0  0  0  0  0  0  0  0  0  0
    3.2500    1.2395   -0.0739 C   0  0  0  0  0  0  0  0  0  0  0  0
   -3.7685    0.3238    0.2391 C   0  0  0  0  0  0  0  0  0  0  0  0
    3.6407   -2.5116    0.2930 C   0  0  0  0  0  0  0  0  0  0  0  0
    5.7584    1.1605    0.9006 C   0  0  0  0  0  0  0  0  0  0  0  0
   -7.1762   -0.4410    0.0848 C   0  0  0  0  0  0  0  0  0  0  0  0
   -0.3728   -0.6193   -1.9651 H   0  0  0  0  0  0  0  0  0  0  0  0
   -0.2441    1.1189   -2.0204 H   0  0  0  0  0  0  0  0  0  0  0  0
   -1.1278    1.3053    0.3013 H   0  0  0  0  0  0  0  0  0  0  0  0
   -1.1555   -0.4390    0.4585 H   0  0  0  0  0  0  0  0  0  0  0  0
   -2.8031   -0.5527   -1.4633 H   0  0  0  0  0  0  0  0  0  0  0  0
   -2.8677    1.2140   -1.4665 H   0  0  0  0  0  0  0  0  0  0  0  0
    1.1801   -1.9813   -0.6828 H   0  0  0  0  0  0  0  0  0  0  0  0
    1.5277    2.3023   -0.7976 H   0  0  0  0  0  0  0  0  0  0  0  0
    3.7655    2.1826    0.0710 H   0  0  0  0  0  0  0  0  0  0  0  0
    4.5371   -2.6826   -0.3122 H   0  0  0  0  0  0  0  0  0  0  0  0
    3.9040   -2.5845    1.3534 H   0  0  0  0  0  0  0  0  0  0  0  0
    2.9353   -3.3200    0.0728 H   0  0  0  0  0  0  0  0  0  0  0  0
   -5.0712   -0.7254   -1.0890 H   0  0  0  0  0  0  0  0  0  0  0  0
    5.9163    1.6873   -0.0468 H   0  0  0  0  0  0  0  0  0  0  0  0
    6.7499    0.9190    1.2980 H   0  0  0  0  0  0  0  0  0  0  0  0
    5.2609    1.7866    1.6490 H   0  0  0  0  0  0  0  0  0  0  0  0
   -7.2475   -1.3585   -0.5082 H   0  0  0  0  0  0  0  0  0  0  0  0
   -7.2901    0.4372   -0.5589 H   0  0  0  0  0  0  0  0  0  0  0  0
   -7.9851   -0.4398    0.8206 H   0  0  0  0  0  0  0  0  0  0  0  0
  1 12  1  0  0  0  0
  1 16  1  0  0  0  0
  2 14  2  0  0  0  0
  3  4  1  0  0  0  0
  3 17  1  0  0  0  0
  4 14  1  0  0  0  0
  4 30  1  0  0  0  0
  5  6  1  0  0  0  0
  5  7  1  0  0  0  0
  5 18  1  0  0  0  0
  5 19  1  0  0  0  0
  6  8  1  0  0  0  0
  6 20  1  0  0  0  0
  6 21  1  0  0  0  0
  7  9  2  0  0  0  0
  7 11  1  0  0  0  0
  8 14  1  0  0  0  0
  8 22  1  0  0  0  0
  8 23  1  0  0  0  0
  9 10  1  0  0  0  0
  9 24  1  0  0  0  0
 10 12  2  0  0  0  0
 10 15  1  0  0  0  0
 11 13  2  0  0  0  0
 11 25  1  0  0  0  0
 12 13  1  0  0  0  0
 13 26  1  0  0  0  0
 15 27  1  0  0  0  0
 15 28  1  0  0  0  0
 15 29  1  0  0  0  0
 16 31  1  0  0  0  0
 16 32  1  0  0  0  0
 16 33  1  0  0  0  0
 17 34  1  0  0  0  0
 17 35  1  0  0  0  0
 17 36  1  0  0  0  0
M  END
> <PUBCHEM_COMPOUND_CID>
11470409

> <PUBCHEM_CONFORMER_RMSD>
0.8

> <PUBCHEM_CONFORMER_DIVERSEORDER>
19
122
104
95
204
208
98
21
105
106
40
139
83
97
85
191
188
51
209
140
180
78
73
113
193
131
70
183
159
46
61
210
146
71
36
202
201
132
57
127
101
141
175
59
93
49
207
111
47
211
177
135
87
164
80
45
142
171
16
189
74
37
128
160
173
165
22
203
62
212
56
72
192
107
108
38
54
129
69
199
194
53
92
148
84
75
158
96
11
133
176
114
121
48
29
25
30
120
81
32
39
119
33
77
198
91
197
58
172
152
35
42
149
2
24
186
90
166
13
125
153
26
89
20
52
156
155
196
145
206
143
43
14
60
137
12
68
144
18
162
195
41
134
66
112
178
163
205
118
168
27
23
63
82
170
181
130
136
99
10
17
115
44
7
124
138
76
154
182
1
184
116
174
151
31
5
150
147
86
100
167
117
4
109
179
103
200
8
110
190
15
94
187
65
6
50
79
88
157
64
3
55
102
169
185
34
9
28
123
67
126
161

> <PUBCHEM_MMFF94_PARTIAL_CHARGES>
20
1 -0.36
10 -0.14
11 -0.15
12 0.08
13 -0.15
14 0.57
15 0.14
16 0.28
17 0.28
2 -0.57
24 0.15
25 0.15
26 0.15
3 -0.32
30 0.37
4 -0.39
5 0.14
7 -0.14
8 0.06
9 -0.15

> <PUBCHEM_EFFECTIVE_ROTOR_COUNT>
7

> <PUBCHEM_PHARMACOPHORE_FEATURES>
4
1 1 acceptor
1 2 acceptor
1 4 donor
6 7 9 10 11 12 13 rings

> <PUBCHEM_HEAVY_ATOM_COUNT>
17

> <PUBCHEM_ATOM_DEF_STEREO_COUNT>
0

> <PUBCHEM_ATOM_UDEF_STEREO_COUNT>
0

> <PUBCHEM_BOND_DEF_STEREO_COUNT>
0

> <PUBCHEM_BOND_UDEF_STEREO_COUNT>
0

> <PUBCHEM_ISOTOPIC_ATOM_COUNT>
0

> <PUBCHEM_COMPONENT_COUNT>
1

> <PUBCHEM_CACTVS_TAUTO_COUNT>
2

> <PUBCHEM_CONFORMER_ID>
00AF064900000013

> <PUBCHEM_MMFF94_ENERGY>
46.9638

> <PUBCHEM_FEATURE_SELFOVERLAP>
20.297

> <PUBCHEM_SHAPE_FINGERPRINT>
100836 57 15052015675441838125
10354089 29 18202563990685184040
106641 1 18040709312588779656
10693767 8 7853314037537773888
11724838 91 17988357169700341063
12107183 9 17694227668678382731
12236239 1 17775002388264150509
12251169 10 18411135848726099292
12596602 18 18202566150979875027
12892183 10 18340486660147831516
12916748 109 16630533929041277689
13533116 47 18411420592384249899
14251752 14 12612743619437111455
14252887 29 18187081716178405346
14341114 176 18343304747083246078
14341114 328 17489870427780382111
14366163 111 10519985950490294207
14848160 23 18040435503985916395
15183329 4 11097843104531825103
15242439 84 11239997875474144980
17834072 8 9799693713911910296
17859628 70 18269554927906113134
18222031 100 17022911128902397014
20374829 77 16081090394336736887
20432913 95 18187087230410056785
20645477 56 13614520758147658965
20645477 70 17894912914592214847
21065198 48 18200880578005577769
21065199 12 18337388232064744428
21267235 1 18339643340005560878
212847 35 14189577416706109590
22224240 67 18335133241786320280
23402539 116 14923933536205613999
23557571 272 16805313375566557813
23559900 14 14418425454901547373
26918003 58 18186521020835076553
29717793 49 12685089263540342994
3004659 81 11818989695023501616
3009799 131 10015865388863031220
3060560 45 9223230763292502904
314173 85 16950569848438569317
33824 294 18260544498840720458
42630746 31 18410293614551190870
4340502 62 18411134757904898962
465052 167 17458336438928032264
5104073 3 18265889164322198280
542803 24 14405185066938689437
7471813 234 12179843888527982086

> <PUBCHEM_SHAPE_MULTIPOLES>
327.26
15.35
1.53
1.03
22.41
0.79
-0.01
1.14
5.48
-2.43
0.1
0.14
-0.17
0.17

> <PUBCHEM_SHAPE_SELFOVERLAP>
656.832

> <PUBCHEM_SHAPE_VOLUME>
194

> <PUBCHEM_COORDINATE_TYPE>
2
5
10

$$$$
