115325
  -OEChem-03052615023D

 75 79  0     1  0  0  0  0  0999 V2000
   -5.6000    1.8877   -2.3463 Br  0  0  0  0  0  0  0  0  0  0  0  0
    2.6228    0.2692   -0.7374 O   0  0  0  0  0  0  0  0  0  0  0  0
    1.7928    2.0673    0.6180 O   0  0  0  0  0  0  0  0  0  0  0  0
   -1.3494    2.2638    0.7984 O   0  0  0  0  0  0  0  0  0  0  0  0
    0.2270   -1.9031    0.2456 O   0  0  0  0  0  0  0  0  0  0  0  0
   -2.8073   -2.1253    1.8756 O   0  0  0  0  0  0  0  0  0  0  0  0
   -5.0725   -2.0820    1.6926 O   0  0  0  0  0  0  0  0  0  0  0  0
   -1.6523    0.3355    1.9503 N   0  0  0  0  0  0  0  0  0  0  0  0
    2.1364   -3.9038    0.8956 N   0  0  0  0  0  0  0  0  0  0  0  0
   -5.7619   -0.7040   -0.6004 N   0  0  0  0  0  0  0  0  0  0  0  0
    2.8566    1.5985   -0.2288 C   0  0  2  0  0  0  0  0  0  0  0  0
    3.0114    2.5837   -1.4239 C   0  0  1  0  0  0  0  0  0  0  0  0
    1.5724    1.0018   -2.8152 C   0  0  2  0  0  0  0  0  0  0  0  0
    1.8226    2.4560   -2.3945 C   0  0  0  0  0  0  0  0  0  0  0  0
    4.1687    1.5251    0.5805 C   0  0  0  0  0  0  0  0  0  0  0  0
    1.4513    0.1419   -1.5480 C   0  0  1  0  0  0  0  0  0  0  0  0
    2.7991    1.2229    2.6880 C   0  0  2  0  0  0  0  0  0  0  0  0
    3.9946    0.7190    1.8681 C   0  0  0  0  0  0  0  0  0  0  0  0
    1.5584    1.2603    1.7776 C   0  0  1  0  0  0  0  0  0  0  0  0
    1.2531   -1.3416   -1.8375 C   0  0  2  0  0  0  0  0  0  0  0  0
    3.1508    4.0524   -1.0042 C   0  0  0  0  0  0  0  0  0  0  0  0
    2.6659    0.5169   -3.7750 C   0  0  0  0  0  0  0  0  0  0  0  0
    0.3142    1.8057    2.4696 C   0  0  0  0  0  0  0  0  0  0  0  0
    3.1157    2.5787    3.3317 C   0  0  0  0  0  0  0  0  0  0  0  0
   -0.0119   -1.5574   -2.6670 C   0  0  0  0  0  0  0  0  0  0  0  0
    1.1552   -2.1444   -0.5311 C   0  0  0  0  0  0  0  0  0  0  0  0
   -0.9439    1.3994    1.7497 C   0  0  0  0  0  0  0  0  0  0  0  0
    2.1710   -3.1707   -0.2320 C   0  0  0  0  0  0  0  0  0  0  0  0
    3.2282   -3.5113   -0.9980 C   0  0  0  0  0  0  0  0  0  0  0  0
   -2.6623    0.4840    1.0310 C   0  0  0  0  0  0  0  0  0  0  0  0
   -2.4803    1.6633    0.3239 C   0  0  0  0  0  0  0  0  0  0  0  0
    3.2067   -4.7597    0.8758 C   0  0  0  0  0  0  0  0  0  0  0  0
    3.9036   -4.5368   -0.2912 C   0  0  0  0  0  0  0  0  0  0  0  0
   -3.7673   -0.3244    0.7278 C   0  0  0  0  0  0  0  0  0  0  0  0
   -3.3213    2.1205   -0.6831 C   0  0  0  0  0  0  0  0  0  0  0  0
   -4.6394    0.1042   -0.2835 C   0  0  0  0  0  0  0  0  0  0  0  0
   -4.4187    1.3027   -0.9734 C   0  0  0  0  0  0  0  0  0  0  0  0
   -3.9756   -1.5653    1.4588 C   0  0  0  0  0  0  0  0  0  0  0  0
   -5.7148   -1.7307   -1.5883 C   0  0  0  0  0  0  0  0  0  0  0  0
    3.9173    2.3087   -1.9803 H   0  0  0  0  0  0  0  0  0  0  0  0
    0.6233    0.9897   -3.3644 H   0  0  0  0  0  0  0  0  0  0  0  0
    1.9901    3.0808   -3.2807 H   0  0  0  0  0  0  0  0  0  0  0  0
    0.9149    2.8439   -1.9122 H   0  0  0  0  0  0  0  0  0  0  0  0
    4.9602    1.0616   -0.0209 H   0  0  0  0  0  0  0  0  0  0  0  0
    4.5147    2.5251    0.8584 H   0  0  0  0  0  0  0  0  0  0  0  0
    0.5923    0.4967   -0.9633 H   0  0  0  0  0  0  0  0  0  0  0  0
    2.6195    0.5088    3.5021 H   0  0  0  0  0  0  0  0  0  0  0  0
    4.9159    0.7604    2.4609 H   0  0  0  0  0  0  0  0  0  0  0  0
    3.8367   -0.3371    1.6143 H   0  0  0  0  0  0  0  0  0  0  0  0
    1.3501    0.2339    1.4516 H   0  0  0  0  0  0  0  0  0  0  0  0
    2.0962   -1.7144   -2.4189 H   0  0  0  0  0  0  0  0  0  0  0  0
    2.2850    4.3926   -0.4267 H   0  0  0  0  0  0  0  0  0  0  0  0
    3.2339    4.6964   -1.8869 H   0  0  0  0  0  0  0  0  0  0  0  0
    4.0486    4.2185   -0.4031 H   0  0  0  0  0  0  0  0  0  0  0  0
    3.6235    0.3655   -3.2668 H   0  0  0  0  0  0  0  0  0  0  0  0
    2.8232    1.2423   -4.5807 H   0  0  0  0  0  0  0  0  0  0  0  0
    2.3869   -0.4278   -4.2515 H   0  0  0  0  0  0  0  0  0  0  0  0
    0.2469    1.4145    3.4919 H   0  0  0  0  0  0  0  0  0  0  0  0
    0.3458    2.9002    2.5326 H   0  0  0  0  0  0  0  0  0  0  0  0
    2.3352    2.8628    4.0449 H   0  0  0  0  0  0  0  0  0  0  0  0
    4.0592    2.5342    3.8861 H   0  0  0  0  0  0  0  0  0  0  0  0
    3.1950    3.3795    2.5899 H   0  0  0  0  0  0  0  0  0  0  0  0
   -0.2449   -2.6261   -2.7383 H   0  0  0  0  0  0  0  0  0  0  0  0
   -0.8804   -1.0676   -2.2118 H   0  0  0  0  0  0  0  0  0  0  0  0
    0.0972   -1.1842   -3.6892 H   0  0  0  0  0  0  0  0  0  0  0  0
    1.4485   -3.8437    1.6347 H   0  0  0  0  0  0  0  0  0  0  0  0
    3.5365   -3.1129   -1.9530 H   0  0  0  0  0  0  0  0  0  0  0  0
    3.3767   -5.4482    1.6916 H   0  0  0  0  0  0  0  0  0  0  0  0
    4.8006   -5.0563   -0.5980 H   0  0  0  0  0  0  0  0  0  0  0  0
   -3.1264    3.0520   -1.2014 H   0  0  0  0  0  0  0  0  0  0  0  0
   -6.6337   -0.1797   -0.5816 H   0  0  0  0  0  0  0  0  0  0  0  0
   -6.6895   -2.2230   -1.6621 H   0  0  0  0  0  0  0  0  0  0  0  0
   -4.9755   -2.4955   -1.3296 H   0  0  0  0  0  0  0  0  0  0  0  0
   -5.4647   -1.3305   -2.5756 H   0  0  0  0  0  0  0  0  0  0  0  0
   -2.9578   -2.9612    2.3665 H   0  0  0  0  0  0  0  0  0  0  0  0
  1 37  1  0  0  0  0
  2 11  1  0  0  0  0
  2 16  1  0  0  0  0
  3 11  1  0  0  0  0
  3 19  1  0  0  0  0
  4 27  1  0  0  0  0
  4 31  1  0  0  0  0
  5 26  2  0  0  0  0
  6 38  1  0  0  0  0
  6 75  1  0  0  0  0
  7 38  2  0  0  0  0
  8 27  2  0  0  0  0
  8 30  1  0  0  0  0
  9 28  1  0  0  0  0
  9 32  1  0  0  0  0
  9 66  1  0  0  0  0
 10 36  1  0  0  0  0
 10 39  1  0  0  0  0
 10 71  1  0  0  0  0
 11 12  1  0  0  0  0
 11 15  1  0  0  0  0
 12 14  1  0  0  0  0
 12 21  1  0  0  0  0
 12 40  1  0  0  0  0
 13 14  1  0  0  0  0
 13 16  1  0  0  0  0
 13 22  1  0  0  0  0
 13 41  1  0  0  0  0
 14 42  1  0  0  0  0
 14 43  1  0  0  0  0
 15 18  1  0  0  0  0
 15 44  1  0  0  0  0
 15 45  1  0  0  0  0
 16 20  1  0  0  0  0
 16 46  1  0  0  0  0
 17 18  1  0  0  0  0
 17 19  1  0  0  0  0
 17 24  1  0  0  0  0
 17 47  1  0  0  0  0
 18 48  1  0  0  0  0
 18 49  1  0  0  0  0
 19 23  1  0  0  0  0
 19 50  1  0  0  0  0
 20 25  1  0  0  0  0
 20 26  1  0  0  0  0
 20 51  1  0  0  0  0
 21 52  1  0  0  0  0
 21 53  1  0  0  0  0
 21 54  1  0  0  0  0
 22 55  1  0  0  0  0
 22 56  1  0  0  0  0
 22 57  1  0  0  0  0
 23 27  1  0  0  0  0
 23 58  1  0  0  0  0
 23 59  1  0  0  0  0
 24 60  1  0  0  0  0
 24 61  1  0  0  0  0
 24 62  1  0  0  0  0
 25 63  1  0  0  0  0
 25 64  1  0  0  0  0
 25 65  1  0  0  0  0
 26 28  1  0  0  0  0
 28 29  2  0  0  0  0
 29 33  1  0  0  0  0
 29 67  1  0  0  0  0
 30 31  1  0  0  0  0
 30 34  2  0  0  0  0
 31 35  2  0  0  0  0
 32 33  2  0  0  0  0
 32 68  1  0  0  0  0
 33 69  1  0  0  0  0
 34 36  1  0  0  0  0
 34 38  1  0  0  0  0
 35 37  1  0  0  0  0
 35 70  1  0  0  0  0
 36 37  2  0  0  0  0
 39 72  1  0  0  0  0
 39 73  1  0  0  0  0
 39 74  1  0  0  0  0
M  END
> <PUBCHEM_COMPOUND_CID>
115325

> <PUBCHEM_CONFORMER_RMSD>
1

> <PUBCHEM_CONFORMER_DIVERSEORDER>
7
69
146
99
123
105
148
128
102
9
26
29
59
30
108
87
127
14
66
24
145
120
5
18
149
77
55
141
147
104
12
95
28
34
54
4
143
65
15
134
1
121
129
32
101
38
97
117
56
131
42
150
151
62
68
139
114
46
57
6
10
106
130
43
142
100
3
23
82
110
132
49
122
58
17
113
64
107
140
52
39
47
144
25
89
71
135
48
86
119
112
125
126
83
75
21
67
72
138
103
70
11
33
115
116
19
27
133
73
81
74
93
118
20
111
51
96
8
94
31
44
79
137
53
90
2
136
45
80
85
13
109
35
22
76
92
37
98
84
41
16
61
40
50
78
124
88
60
91
63
36

> <PUBCHEM_MMFF94_PARTIAL_CHARGES>
36
1 -0.11
10 -0.87
11 0.56
16 0.28
19 0.28
2 -0.56
20 0.06
23 0.18
26 0.59
27 0.3
28 -0.24
29 -0.15
3 -0.56
30 0.23
31 0.14
32 -0.3
33 -0.15
34 0.09
35 -0.15
36 0.1
37 0.11
38 0.63
39 0.37
4 -0.28
5 -0.57
6 -0.65
66 0.27
67 0.15
68 0.15
69 0.15
7 -0.57
70 0.15
71 0.4
75 0.5
8 -0.57
9 0.03

> <PUBCHEM_EFFECTIVE_ROTOR_COUNT>
9

> <PUBCHEM_PHARMACOPHORE_FEATURES>
17
1 1 hydrophobe
1 10 cation
1 10 donor
1 2 acceptor
1 25 hydrophobe
1 3 acceptor
1 5 acceptor
1 6 acceptor
1 7 acceptor
1 9 cation
1 9 donor
3 6 7 38 anion
5 4 8 27 30 31 rings
5 9 28 29 32 33 rings
6 2 11 12 13 14 16 rings
6 3 11 15 17 18 19 rings
6 30 31 34 35 36 37 rings

> <PUBCHEM_HEAVY_ATOM_COUNT>
39

> <PUBCHEM_ATOM_DEF_STEREO_COUNT>
6

> <PUBCHEM_ATOM_UDEF_STEREO_COUNT>
1

> <PUBCHEM_BOND_DEF_STEREO_COUNT>
0

> <PUBCHEM_BOND_UDEF_STEREO_COUNT>
0

> <PUBCHEM_ISOTOPIC_ATOM_COUNT>
0

> <PUBCHEM_COMPONENT_COUNT>
1

> <PUBCHEM_CACTVS_TAUTO_COUNT>
35

> <PUBCHEM_CONFORMER_ID>
0001C27D00000007

> <PUBCHEM_MMFF94_ENERGY>
108.2177

> <PUBCHEM_FEATURE_SELFOVERLAP>
86.486

> <PUBCHEM_SHAPE_FINGERPRINT>
11434127 23 15001122679791190334
12156800 1 16395794029145975948
12166972 35 18265336101742454527
13165054 342 17765147667983260304
133893 2 18197238982730781944
14068700 675 17983001263767580551
15001296 14 15194715857342828637
15664445 248 11691313434855681200
20600515 1 17692547619280298642
20764821 26 17907575084224937887
20775530 9 18121797040178660122
23419403 2 17692222177034602072
23559900 14 18261393283157129631
25222932 49 17701801379896577423
25265897 201 17676781893805826681
35225 105 17981611773174878990
4280585 95 17974562494981733186
44802255 64 17538316168916183500
469060 322 18123733512679091415
508180 173 17244706663747771613
513532 50 17458345208391680604
550186 7 14571609505124936766
57527306 92 12988606433626847062
6669772 16 17773584104891776680
86090 222 17697054886915742235

> <PUBCHEM_SHAPE_MULTIPOLES>
758.39
10.7
5.27
3.44
16.38
5.05
-0.74
2.13
-1.15
-7.32
0.23
-1.62
-1.82
1.48

> <PUBCHEM_SHAPE_SELFOVERLAP>
1626.935

> <PUBCHEM_SHAPE_VOLUME>
428.2

> <PUBCHEM_COORDINATE_TYPE>
2
5
10

$$$$
