115312
  -OEChem-03052615043D

 44 48  0     1  0  0  0  0  0999 V2000
   -4.4403    0.2310   -0.3084 O   0  0  0  0  0  0  0  0  0  0  0  0
   -4.7029    2.4288    0.5897 O   0  0  0  0  0  0  0  0  0  0  0  0
    0.1918    0.8234   -0.2189 O   0  0  0  0  0  0  0  0  0  0  0  0
   -1.6988   -3.6263    0.3179 O   0  0  0  0  0  0  0  0  0  0  0  0
    0.8441   -3.2985    0.3737 O   0  0  0  0  0  0  0  0  0  0  0  0
    2.3421    2.5784   -0.3707 O   0  0  0  0  0  0  0  0  0  0  0  0
    4.8811    1.7466   -0.1554 O   0  0  0  0  0  0  0  0  0  0  0  0
    3.4783   -2.7127    0.3954 O   0  0  0  0  0  0  0  0  0  0  0  0
   -2.5921    1.8391   -0.4639 C   0  0  1  0  0  0  0  0  0  0  0  0
   -2.1381    0.4459   -0.2491 C   0  0  0  0  0  0  0  0  0  0  0  0
   -4.1239    1.6353   -0.4735 C   0  0  1  0  0  0  0  0  0  0  0  0
   -3.2318   -0.3991   -0.1801 C   0  0  0  0  0  0  0  0  0  0  0  0
   -0.8516   -0.0604   -0.1337 C   0  0  0  0  0  0  0  0  0  0  0  0
   -2.4251    2.7578    0.6819 C   0  0  0  0  0  0  0  0  0  0  0  0
   -0.6656   -1.4352    0.0605 C   0  0  0  0  0  0  0  0  0  0  0  0
   -3.0896   -1.7595    0.0092 C   0  0  0  0  0  0  0  0  0  0  0  0
   -1.7963   -2.2767    0.1306 C   0  0  0  0  0  0  0  0  0  0  0  0
   -3.6211    3.0353    1.1861 C   0  0  0  0  0  0  0  0  0  0  0  0
    0.7088   -1.9419    0.1824 C   0  0  0  0  0  0  0  0  0  0  0  0
    1.7335   -1.0695    0.1031 C   0  0  0  0  0  0  0  0  0  0  0  0
    1.4972    0.3577   -0.1018 C   0  0  0  0  0  0  0  0  0  0  0  0
    2.5199    1.2246   -0.1793 C   0  0  0  0  0  0  0  0  0  0  0  0
    3.1583   -1.5416    0.2239 C   0  0  0  0  0  0  0  0  0  0  0  0
    3.8937    0.7851   -0.0638 C   0  0  0  0  0  0  0  0  0  0  0  0
    4.2166   -0.5015    0.1249 C   0  0  0  0  0  0  0  0  0  0  0  0
   -1.6034   -4.4339   -0.8517 C   0  0  0  0  0  0  0  0  0  0  0  0
    2.3292    2.8940   -1.7496 C   0  0  0  0  0  0  0  0  0  0  0  0
    5.1860    2.2740    1.1204 C   0  0  0  0  0  0  0  0  0  0  0  0
   -2.2311    2.2567   -1.4084 H   0  0  0  0  0  0  0  0  0  0  0  0
   -4.5643    1.9716   -1.4205 H   0  0  0  0  0  0  0  0  0  0  0  0
   -1.4883    3.1566    1.0398 H   0  0  0  0  0  0  0  0  0  0  0  0
   -3.9592   -2.4064    0.0641 H   0  0  0  0  0  0  0  0  0  0  0  0
   -3.8615    3.6759    2.0156 H   0  0  0  0  0  0  0  0  0  0  0  0
    5.2482   -0.8253    0.2092 H   0  0  0  0  0  0  0  0  0  0  0  0
    1.7859   -3.5226    0.4381 H   0  0  0  0  0  0  0  0  0  0  0  0
   -1.2590   -5.4286   -0.5557 H   0  0  0  0  0  0  0  0  0  0  0  0
   -0.8959   -4.0186   -1.5770 H   0  0  0  0  0  0  0  0  0  0  0  0
   -2.5900   -4.5303   -1.3155 H   0  0  0  0  0  0  0  0  0  0  0  0
    2.1963    3.9756   -1.8484 H   0  0  0  0  0  0  0  0  0  0  0  0
    1.4927    2.4064   -2.2628 H   0  0  0  0  0  0  0  0  0  0  0  0
    3.2732    2.6273   -2.2372 H   0  0  0  0  0  0  0  0  0  0  0  0
    5.9575    3.0400    0.9955 H   0  0  0  0  0  0  0  0  0  0  0  0
    5.5871    1.5010    1.7855 H   0  0  0  0  0  0  0  0  0  0  0  0
    4.3143    2.7500    1.5828 H   0  0  0  0  0  0  0  0  0  0  0  0
  1 11  1  0  0  0  0
  1 12  1  0  0  0  0
  2 11  1  0  0  0  0
  2 18  1  0  0  0  0
  3 13  1  0  0  0  0
  3 21  1  0  0  0  0
  4 17  1  0  0  0  0
  4 26  1  0  0  0  0
  5 19  1  0  0  0  0
  5 35  1  0  0  0  0
  6 22  1  0  0  0  0
  6 27  1  0  0  0  0
  7 24  1  0  0  0  0
  7 28  1  0  0  0  0
  8 23  2  0  0  0  0
  9 10  1  0  0  0  0
  9 11  1  0  0  0  0
  9 14  1  0  0  0  0
  9 29  1  0  0  0  0
 10 12  1  0  0  0  0
 10 13  2  0  0  0  0
 11 30  1  0  0  0  0
 12 16  2  0  0  0  0
 13 15  1  0  0  0  0
 14 18  2  0  0  0  0
 14 31  1  0  0  0  0
 15 17  2  0  0  0  0
 15 19  1  0  0  0  0
 16 17  1  0  0  0  0
 16 32  1  0  0  0  0
 18 33  1  0  0  0  0
 19 20  2  0  0  0  0
 20 21  1  0  0  0  0
 20 23  1  0  0  0  0
 21 22  2  0  0  0  0
 22 24  1  0  0  0  0
 23 25  1  0  0  0  0
 24 25  2  0  0  0  0
 25 34  1  0  0  0  0
 26 36  1  0  0  0  0
 26 37  1  0  0  0  0
 26 38  1  0  0  0  0
 27 39  1  0  0  0  0
 27 40  1  0  0  0  0
 27 41  1  0  0  0  0
 28 42  1  0  0  0  0
 28 43  1  0  0  0  0
 28 44  1  0  0  0  0
M  END
> <PUBCHEM_COMPOUND_CID>
115312

> <PUBCHEM_CONFORMER_RMSD>
0.8

> <PUBCHEM_CONFORMER_DIVERSEORDER>
2
1

> <PUBCHEM_MMFF94_PARTIAL_CHARGES>
33
1 -0.36
10 -0.14
11 0.56
12 0.08
13 0.08
14 -0.29
15 0.03
16 -0.15
17 0.08
18 -0.07
19 0.05
2 -0.36
20 0.01
21 0.08
22 0.08
23 0.54
24 0.08
25 -0.14
26 0.28
27 0.28
28 0.28
3 -0.16
31 0.15
32 0.15
33 0.15
34 0.15
35 0.45
4 -0.36
5 -0.53
6 -0.36
7 -0.36
8 -0.57
9 0.28

> <PUBCHEM_EFFECTIVE_ROTOR_COUNT>
3.4

> <PUBCHEM_PHARMACOPHORE_FEATURES>
13
1 1 acceptor
1 2 acceptor
1 3 acceptor
1 4 acceptor
1 5 donor
1 6 acceptor
1 7 acceptor
1 8 acceptor
5 1 9 10 11 12 rings
5 2 9 11 14 18 rings
6 10 12 13 15 16 17 rings
6 20 21 22 23 24 25 rings
6 3 13 15 19 20 21 rings

> <PUBCHEM_HEAVY_ATOM_COUNT>
28

> <PUBCHEM_ATOM_DEF_STEREO_COUNT>
0

> <PUBCHEM_ATOM_UDEF_STEREO_COUNT>
2

> <PUBCHEM_BOND_DEF_STEREO_COUNT>
0

> <PUBCHEM_BOND_UDEF_STEREO_COUNT>
0

> <PUBCHEM_ISOTOPIC_ATOM_COUNT>
0

> <PUBCHEM_COMPONENT_COUNT>
1

> <PUBCHEM_CACTVS_TAUTO_COUNT>
3

> <PUBCHEM_CONFORMER_ID>
0001C27000000002

> <PUBCHEM_MMFF94_ENERGY>
112.3224

> <PUBCHEM_FEATURE_SELFOVERLAP>
66.696

> <PUBCHEM_SHAPE_FINGERPRINT>
10319926 262 18198040660669185672
10411042 1 17546444939109574351
10616163 171 18265616661521677550
10967382 1 18120653522204991367
1100329 8 18266739069915501322
11135609 187 18337093602542521493
11513181 2 18201719531100422366
11578080 2 17344617382202673971
12107183 9 17907013976290019984
12173636 292 18412260640605355967
12390115 104 18342192058511929065
12403260 363 17974278026654877078
12422481 6 18117534285928515416
12553582 1 17545043066221162295
12633257 1 18190452766862486106
12788726 201 17687478166412202820
12978246 48 18335987553093390241
13140716 1 18265054643470424195
133893 2 16055219885808778166
138480 1 17402331473600077007
14178342 30 18336535136281177720
14739800 52 18199728371988751712
14790565 3 18339084765737720656
14955137 171 17761233019740568859
15196674 1 18410009909958874263
15475509 8 17266959640727287574
17492 89 18408886256299699074
19591789 44 18120373146977174974
20510252 161 18341615940737112219
20739085 24 17831030030529577928
20775438 99 16545194484482078007
21033648 144 18334565811491250949
21033650 10 17345495711615644112
22393880 68 18341620343289626278
23227448 37 18410854403624580463
23558518 356 18261393420395928546
23559900 14 18199746951969975806
283562 15 18120649403590096874
335352 9 18193556671118949446
350125 39 18336551619796038289
352729 6 18338517542444794743
3633792 109 18263627508265632613
463206 1 17472697404410969854
469060 322 18192449669252637705
474 4 18195245504041625273
5081480 168 17198581093799142583
5104073 3 18335138657043807368
633830 44 18057040212149719461
7832392 63 18408603656578847430
9709674 26 18340772627913742894
9981440 41 18408601491525038283

> <PUBCHEM_SHAPE_MULTIPOLES>
529.27
9.29
4.89
0.91
4.02
2.87
0.12
-6.59
-1.2
-1.99
0
0.18
-0.58
-1.09

> <PUBCHEM_SHAPE_SELFOVERLAP>
1201.311

> <PUBCHEM_SHAPE_VOLUME>
275.9

> <PUBCHEM_COORDINATE_TYPE>
2
5
10

$$$$
