11603504
  -OEChem-03052615023D

 48 51  0     0  0  0  0  0  0999 V2000
   -8.9370   -0.7713   -1.2663 F   0  0  0  0  0  0  0  0  0  0  0  0
   -2.5270   -0.0614   -1.1391 O   0  0  0  0  0  0  0  0  0  0  0  0
    6.6516   -1.3102   -0.0353 N   0  0  0  0  0  0  0  0  0  0  0  0
    5.7755   -2.2375    0.3920 N   0  0  0  0  0  0  0  0  0  0  0  0
    6.7155    1.0085   -0.7212 N   0  0  0  0  0  0  0  0  0  0  0  0
    3.4214   -2.1207    0.7850 N   0  0  0  0  0  0  0  0  0  0  0  0
   -1.6118    0.5920    0.9164 N   0  0  0  0  0  0  0  0  0  0  0  0
   -3.8949    0.2999    0.7231 N   0  0  0  0  0  0  0  0  0  0  0  0
    4.7352   -0.2383   -0.0003 C   0  0  0  0  0  0  0  0  0  0  0  0
    3.9064    0.8772   -0.1736 C   0  0  0  0  0  0  0  0  0  0  0  0
    6.0841   -0.0959   -0.2862 C   0  0  0  0  0  0  0  0  0  0  0  0
    2.4943    0.8034    0.1056 C   0  0  0  0  0  0  0  0  0  0  0  0
    4.6115   -1.5799    0.4120 C   0  0  0  0  0  0  0  0  0  0  0  0
    4.5055    2.0537   -0.6240 C   0  0  0  0  0  0  0  0  0  0  0  0
    1.5970    0.4360   -0.9010 C   0  0  0  0  0  0  0  0  0  0  0  0
    2.0138    1.0998    1.3843 C   0  0  0  0  0  0  0  0  0  0  0  0
   -0.2447    0.6622    0.6463 C   0  0  0  0  0  0  0  0  0  0  0  0
    5.8737    2.0592   -0.8741 C   0  0  0  0  0  0  0  0  0  0  0  0
    0.2303    0.3656   -0.6312 C   0  0  0  0  0  0  0  0  0  0  0  0
    0.6471    1.0292    1.6541 C   0  0  0  0  0  0  0  0  0  0  0  0
    8.0434   -1.6635   -0.1863 C   0  0  0  0  0  0  0  0  0  0  0  0
   -5.1872    0.0269    0.2158 C   0  0  0  0  0  0  0  0  0  0  0  0
   -2.6690    0.2436    0.0408 C   0  0  0  0  0  0  0  0  0  0  0  0
   -7.5568   -0.1300    0.5555 C   0  0  0  0  0  0  0  0  0  0  0  0
   -6.2829    0.1400    1.0556 C   0  0  0  0  0  0  0  0  0  0  0  0
   -5.3293   -0.3485   -1.1098 C   0  0  0  0  0  0  0  0  0  0  0  0
   -7.7170   -0.5091   -0.7772 C   0  0  0  0  0  0  0  0  0  0  0  0
   -6.6032   -0.6182   -1.6099 C   0  0  0  0  0  0  0  0  0  0  0  0
   -8.7453   -0.0129    1.4490 C   0  0  0  0  0  0  0  0  0  0  0  0
    3.9249    2.9581   -0.7811 H   0  0  0  0  0  0  0  0  0  0  0  0
    1.9513    0.2011   -1.9023 H   0  0  0  0  0  0  0  0  0  0  0  0
    2.6950    1.3872    2.1821 H   0  0  0  0  0  0  0  0  0  0  0  0
    6.3534    2.9691   -1.2253 H   0  0  0  0  0  0  0  0  0  0  0  0
   -0.3940    0.0740   -1.4636 H   0  0  0  0  0  0  0  0  0  0  0  0
    0.2910    1.2628    2.6543 H   0  0  0  0  0  0  0  0  0  0  0  0
    8.4202   -1.9931    0.7853 H   0  0  0  0  0  0  0  0  0  0  0  0
    8.1135   -2.4719   -0.9185 H   0  0  0  0  0  0  0  0  0  0  0  0
    8.6150   -0.7995   -0.5316 H   0  0  0  0  0  0  0  0  0  0  0  0
    2.5420   -1.6180    0.7978 H   0  0  0  0  0  0  0  0  0  0  0  0
    3.3541   -3.0904    1.0787 H   0  0  0  0  0  0  0  0  0  0  0  0
   -1.8812    0.8223    1.8697 H   0  0  0  0  0  0  0  0  0  0  0  0
   -3.8586    0.5697    1.7028 H   0  0  0  0  0  0  0  0  0  0  0  0
   -6.1535    0.4369    2.0934 H   0  0  0  0  0  0  0  0  0  0  0  0
   -4.5216   -0.4563   -1.8179 H   0  0  0  0  0  0  0  0  0  0  0  0
   -6.7298   -0.9138   -2.6474 H   0  0  0  0  0  0  0  0  0  0  0  0
   -8.4561    0.1109    2.4981 H   0  0  0  0  0  0  0  0  0  0  0  0
   -9.3501    0.8525    1.1596 H   0  0  0  0  0  0  0  0  0  0  0  0
   -9.3619   -0.9159    1.3863 H   0  0  0  0  0  0  0  0  0  0  0  0
  1 27  1  0  0  0  0
  2 23  2  0  0  0  0
  3  4  1  0  0  0  0
  3 11  1  0  0  0  0
  3 21  1  0  0  0  0
  4 13  2  0  0  0  0
  5 11  2  0  0  0  0
  5 18  1  0  0  0  0
  6 13  1  0  0  0  0
  6 39  1  0  0  0  0
  6 40  1  0  0  0  0
  7 17  1  0  0  0  0
  7 23  1  0  0  0  0
  7 41  1  0  0  0  0
  8 22  1  0  0  0  0
  8 23  1  0  0  0  0
  8 42  1  0  0  0  0
  9 10  2  0  0  0  0
  9 11  1  0  0  0  0
  9 13  1  0  0  0  0
 10 12  1  0  0  0  0
 10 14  1  0  0  0  0
 12 15  2  0  0  0  0
 12 16  1  0  0  0  0
 14 18  2  0  0  0  0
 14 30  1  0  0  0  0
 15 19  1  0  0  0  0
 15 31  1  0  0  0  0
 16 20  2  0  0  0  0
 16 32  1  0  0  0  0
 17 19  2  0  0  0  0
 17 20  1  0  0  0  0
 18 33  1  0  0  0  0
 19 34  1  0  0  0  0
 20 35  1  0  0  0  0
 21 36  1  0  0  0  0
 21 37  1  0  0  0  0
 21 38  1  0  0  0  0
 22 25  2  0  0  0  0
 22 26  1  0  0  0  0
 24 25  1  0  0  0  0
 24 27  2  0  0  0  0
 24 29  1  0  0  0  0
 25 43  1  0  0  0  0
 26 28  2  0  0  0  0
 26 44  1  0  0  0  0
 27 28  1  0  0  0  0
 28 45  1  0  0  0  0
 29 46  1  0  0  0  0
 29 47  1  0  0  0  0
 29 48  1  0  0  0  0
M  END
> <PUBCHEM_COMPOUND_CID>
11603504

> <PUBCHEM_CONFORMER_RMSD>
0.8

> <PUBCHEM_CONFORMER_DIVERSEORDER>
1
13
15
12
14
7
17
19
11
10
16
20
3
2
18
9
4
5
6
8

> <PUBCHEM_MMFF94_PARTIAL_CHARGES>
39
1 -0.19
11 0.11
13 0.37
14 -0.15
15 -0.15
16 -0.15
17 0.12
18 0.16
19 -0.15
2 -0.57
20 -0.15
21 0.26
22 0.12
23 0.69
24 -0.14
25 -0.15
26 -0.15
27 0.19
28 -0.15
29 0.14
3 0.31
30 0.15
31 0.15
32 0.15
33 0.15
34 0.15
35 0.15
39 0.4
4 -0.71
40 0.4
41 0.37
42 0.37
43 0.15
44 0.15
45 0.15
5 -0.57
6 -0.88
7 -0.55
8 -0.55

> <PUBCHEM_EFFECTIVE_ROTOR_COUNT>
5

> <PUBCHEM_PHARMACOPHORE_FEATURES>
10
1 2 acceptor
1 6 donor
1 7 donor
1 8 donor
3 3 5 11 cation
3 4 6 13 cation
5 3 4 9 11 13 rings
6 12 15 16 17 19 20 rings
6 22 24 25 26 27 28 rings
6 5 9 10 11 14 18 rings

> <PUBCHEM_HEAVY_ATOM_COUNT>
29

> <PUBCHEM_ATOM_DEF_STEREO_COUNT>
0

> <PUBCHEM_ATOM_UDEF_STEREO_COUNT>
0

> <PUBCHEM_BOND_DEF_STEREO_COUNT>
0

> <PUBCHEM_BOND_UDEF_STEREO_COUNT>
0

> <PUBCHEM_ISOTOPIC_ATOM_COUNT>
0

> <PUBCHEM_COMPONENT_COUNT>
1

> <PUBCHEM_CACTVS_TAUTO_COUNT>
20

> <PUBCHEM_CONFORMER_ID>
00B10E3000000001

> <PUBCHEM_MMFF94_ENERGY>
86.476

> <PUBCHEM_FEATURE_SELFOVERLAP>
50.91

> <PUBCHEM_SHAPE_FINGERPRINT>
10 15 14979949289806289610
10299344 5 18273216404620445077
10319688 140 17531796935998165106
106641 1 16630518541064850666
11135926 11 17132112412787969053
11315181 36 16153423962157970925
11719270 70 16272212989612169229
12082328 90 18261114072197922257
12089408 11 17918277562921639917
12166972 35 18341894117068968761
12236239 1 18202005404740405936
12741549 16 17458054977301435340
13383665 225 13985218813871265823
13533116 47 18411699877090845136
14068700 675 17489872648342200953
14251764 18 18060139851719486637
14294032 229 16987181360972362073
150020 25 17313105241754239771
15119646 104 18202285775288191791
15183329 4 18408037412332743203
15198563 99 17531240604953272533
15328684 2 17702954612943968747
15352257 5 18334858346679135619
15419008 47 17095235939164151525
15419008 91 16806155683552761629
15510794 2 17458630037922284035
15849732 13 17312823796979404871
19301679 30 17416976019768632126
20105231 36 17022908947897761515
20157964 124 18259988201923379548
2026 5 18191021201901556250
20771845 140 17060051511467655926
21150785 3 14851891344141942091
21315759 40 18273498992146913093
21792934 111 13398633853637005211
221357 26 17894346675010713404
22956985 138 16985205448577828534
23081809 10 18272938223815481753
23516275 137 18127997268048071371
23522609 53 17914925168964727089
23559900 14 18262237845046479433
23576562 1 13480004353273396923
249057 3 18113621209643730566
3383291 50 15626221356031706591
34797466 226 17603307080745787724
3633792 109 18187645778006441977
4073 2 18116718597717101978
4098825 35 18261672576185283813
439807 62 18413670201310621602
44389302 135 17560799867450101694
445580 37 15430032128895916477
45377200 153 17896043303784978851
5219985 9 17989208148761837609
57527295 17 16953378976789466874
59682541 52 17967250880264306450
59755656 215 16588021299136806979
6081469 158 16877942703552217982

> <PUBCHEM_SHAPE_MULTIPOLES>
553.78
28.06
1.67
1.32
35.24
0.32
0.04
8.53
-3.28
-4.58
0.05
1.83
-0.13
-1.84

> <PUBCHEM_SHAPE_SELFOVERLAP>
1228.827

> <PUBCHEM_SHAPE_VOLUME>
298.2

> <PUBCHEM_COORDINATE_TYPE>
2
5
10

$$$$
