11624641
  -OEChem-03052615043D

 43 45  0     0  0  0  0  0  0999 V2000
    0.8781   -1.4616    1.7878 S   0  0  0  0  0  0  0  0  0  0  0  0
    1.7589    1.6773    2.0657 O   0  0  0  0  0  0  0  0  0  0  0  0
   -4.9963    1.0240   -0.2369 O   0  0  0  0  0  0  0  0  0  0  0  0
   -5.2117   -1.0578   -1.1723 O   0  0  0  0  0  0  0  0  0  0  0  0
    3.2442   -1.0232   -1.3264 N   0  0  0  0  0  0  0  0  0  0  0  0
    4.0014    1.2654   -1.2841 N   0  0  0  0  0  0  0  0  0  0  0  0
    3.1860    2.6178    0.5175 N   0  0  0  0  0  0  0  0  0  0  0  0
    4.6479    3.4760   -1.1186 N   0  0  0  0  0  0  0  0  0  0  0  0
    2.4147   -1.7756   -0.5250 C   0  0  0  0  0  0  0  0  0  0  0  0
    1.9573   -0.9727    0.5061 C   0  0  0  0  0  0  0  0  0  0  0  0
    2.5289    0.3077    0.3222 C   0  0  0  0  0  0  0  0  0  0  0  0
    3.3032    0.2281   -0.8047 C   0  0  0  0  0  0  0  0  0  0  0  0
    2.1534   -3.1947   -0.8435 C   0  0  0  0  0  0  0  0  0  0  0  0
    2.4407    1.5629    1.0538 C   0  0  0  0  0  0  0  0  0  0  0  0
    3.1561   -4.1464   -0.1838 C   0  0  0  0  0  0  0  0  0  0  0  0
    3.9074    2.4574   -0.5741 C   0  0  0  0  0  0  0  0  0  0  0  0
   -0.7379   -1.0998    1.1034 C   0  0  0  0  0  0  0  0  0  0  0  0
   -1.4088   -2.0740    0.3734 C   0  0  0  0  0  0  0  0  0  0  0  0
   -1.3072    0.1516    1.3079 C   0  0  0  0  0  0  0  0  0  0  0  0
   -3.2449   -0.5396    0.0408 C   0  0  0  0  0  0  0  0  0  0  0  0
   -2.6666   -1.7928   -0.1599 C   0  0  0  0  0  0  0  0  0  0  0  0
   -2.5652    0.4327    0.7747 C   0  0  0  0  0  0  0  0  0  0  0  0
   -4.5564   -0.2466   -0.5150 C   0  0  0  0  0  0  0  0  0  0  0  0
   -6.2830    1.3796   -0.7555 C   0  0  0  0  0  0  0  0  0  0  0  0
   -6.6002    2.8041   -0.3536 C   0  0  0  0  0  0  0  0  0  0  0  0
    3.7235   -1.3488   -2.1553 H   0  0  0  0  0  0  0  0  0  0  0  0
    1.1439   -3.4824   -0.5371 H   0  0  0  0  0  0  0  0  0  0  0  0
    2.1902   -3.3459   -1.9298 H   0  0  0  0  0  0  0  0  0  0  0  0
    4.5759    1.2075   -2.1189 H   0  0  0  0  0  0  0  0  0  0  0  0
    4.1790   -3.9260   -0.5074 H   0  0  0  0  0  0  0  0  0  0  0  0
    2.9274   -5.1822   -0.4533 H   0  0  0  0  0  0  0  0  0  0  0  0
    3.1214   -4.0608    0.9074 H   0  0  0  0  0  0  0  0  0  0  0  0
   -0.9836   -3.0608    0.2169 H   0  0  0  0  0  0  0  0  0  0  0  0
   -0.7985    0.9196    1.8829 H   0  0  0  0  0  0  0  0  0  0  0  0
   -3.1795   -2.5661   -0.7257 H   0  0  0  0  0  0  0  0  0  0  0  0
   -2.9816    1.4198    0.9548 H   0  0  0  0  0  0  0  0  0  0  0  0
    4.6646    4.3971   -0.6946 H   0  0  0  0  0  0  0  0  0  0  0  0
    5.1988    3.3393   -1.9589 H   0  0  0  0  0  0  0  0  0  0  0  0
   -6.2709    1.2966   -1.8479 H   0  0  0  0  0  0  0  0  0  0  0  0
   -7.0404    0.7017   -0.3467 H   0  0  0  0  0  0  0  0  0  0  0  0
   -7.5787    3.1094   -0.7342 H   0  0  0  0  0  0  0  0  0  0  0  0
   -6.5969    2.9066    0.7367 H   0  0  0  0  0  0  0  0  0  0  0  0
   -5.8402    3.4916   -0.7395 H   0  0  0  0  0  0  0  0  0  0  0  0
  1 10  1  0  0  0  0
  1 17  1  0  0  0  0
  2 14  2  0  0  0  0
  3 23  1  0  0  0  0
  3 24  1  0  0  0  0
  4 23  2  0  0  0  0
  5  9  1  0  0  0  0
  5 12  1  0  0  0  0
  5 26  1  0  0  0  0
  6 12  1  0  0  0  0
  6 16  1  0  0  0  0
  6 29  1  0  0  0  0
  7 14  1  0  0  0  0
  7 16  2  0  0  0  0
  8 16  1  0  0  0  0
  8 37  1  0  0  0  0
  8 38  1  0  0  0  0
  9 10  2  0  0  0  0
  9 13  1  0  0  0  0
 10 11  1  0  0  0  0
 11 12  2  0  0  0  0
 11 14  1  0  0  0  0
 13 15  1  0  0  0  0
 13 27  1  0  0  0  0
 13 28  1  0  0  0  0
 15 30  1  0  0  0  0
 15 31  1  0  0  0  0
 15 32  1  0  0  0  0
 17 18  2  0  0  0  0
 17 19  1  0  0  0  0
 18 21  1  0  0  0  0
 18 33  1  0  0  0  0
 19 22  2  0  0  0  0
 19 34  1  0  0  0  0
 20 21  2  0  0  0  0
 20 22  1  0  0  0  0
 20 23  1  0  0  0  0
 21 35  1  0  0  0  0
 22 36  1  0  0  0  0
 24 25  1  0  0  0  0
 24 39  1  0  0  0  0
 24 40  1  0  0  0  0
 25 41  1  0  0  0  0
 25 42  1  0  0  0  0
 25 43  1  0  0  0  0
M  END
> <PUBCHEM_COMPOUND_CID>
11624641

> <PUBCHEM_CONFORMER_RMSD>
0.8

> <PUBCHEM_CONFORMER_DIVERSEORDER>
1
54
5
50
37
24
36
39
27
45
2
38
44
16
46
28
33
11
6
48
29
40
18
53
22
55
30
35
34
31
10
43
49
12
21
42
13
19
41
15
32
14
26
7
3
9
4
8
23
47
25
51
20
52
17

> <PUBCHEM_MMFF94_PARTIAL_CHARGES>
31
1 -0.16
10 0.05
11 -0.09
12 -0.07
13 0.18
14 0.87
16 0.55
17 0.1
18 -0.15
19 -0.15
2 -0.57
20 0.09
21 -0.15
22 -0.15
23 0.63
24 0.28
26 0.27
29 0.4
3 -0.43
33 0.15
34 0.15
35 0.15
36 0.15
37 0.4
38 0.4
4 -0.57
5 0.03
6 -0.53
7 -0.66
8 -0.85
9 -0.33

> <PUBCHEM_EFFECTIVE_ROTOR_COUNT>
6

> <PUBCHEM_PHARMACOPHORE_FEATURES>
11
1 15 hydrophobe
1 2 acceptor
1 4 acceptor
1 5 cation
1 5 donor
1 6 donor
1 7 donor
1 8 donor
5 5 9 10 11 12 rings
6 17 18 19 20 21 22 rings
6 6 7 11 12 14 16 rings

> <PUBCHEM_HEAVY_ATOM_COUNT>
25

> <PUBCHEM_ATOM_DEF_STEREO_COUNT>
0

> <PUBCHEM_ATOM_UDEF_STEREO_COUNT>
0

> <PUBCHEM_BOND_DEF_STEREO_COUNT>
0

> <PUBCHEM_BOND_UDEF_STEREO_COUNT>
0

> <PUBCHEM_ISOTOPIC_ATOM_COUNT>
0

> <PUBCHEM_COMPONENT_COUNT>
1

> <PUBCHEM_CACTVS_TAUTO_COUNT>
17

> <PUBCHEM_CONFORMER_ID>
00B160C100000001

> <PUBCHEM_MMFF94_ENERGY>
58.1457

> <PUBCHEM_FEATURE_SELFOVERLAP>
56.076

> <PUBCHEM_SHAPE_FINGERPRINT>
10498660 4 18265337376883244920
11720765 8 18194116318506101510
11796584 16 13829547836624258981
12633257 1 15213855081447051980
12730499 353 18339091491656629963
12892183 10 10737292342246618839
13004483 165 17906444429953712186
13965767 371 16805591616606778654
14468879 13 18189059844549418875
14537116 161 17846207814659865441
14848178 5 11671771677282832997
14848178 96 18408038511818113961
14950920 106 11025794284964124053
15163728 17 17969510479501172596
15183329 4 17346315956802675881
15210252 30 18187087281887393948
17959699 21 18409445886812268217
19752476 56 18334010588173263248
21304303 282 17483368083813092030
22289505 5 18341613681062152828
22393880 68 18059576961373686742
23559900 14 18201711808870594563
238 59 18059584653966062194
2838139 119 18193554695513133804
3004659 81 18129940053527759479
3117164 225 8357718329732183615
3472631 163 17532647034684900509
376196 1 18189334739825694264
4280585 95 17484553061027039462
44317340 157 18411415082489510607
4756326 101 17130975638225465056
633830 44 18262228933722621283
7471813 234 18129947746162170746
7970288 3 11383845861029943373
960060 61 17346593076170455501
9981440 41 18192713569249780634

> <PUBCHEM_SHAPE_MULTIPOLES>
480.81
12.57
4.07
1.44
22.1
0.1
0.42
-9.28
-5.65
-5.08
-0.9
-0.74
-0.13
0.14

> <PUBCHEM_SHAPE_SELFOVERLAP>
1026.191

> <PUBCHEM_SHAPE_VOLUME>
270.1

> <PUBCHEM_COORDINATE_TYPE>
2
5
10

$$$$
