11655911
  -OEChem-03052615083D

 52 55  0     1  0  0  0  0  0999 V2000
    3.5130    0.0023    0.3222 O   0  0  0  0  0  0  0  0  0  0  0  0
    2.4086    1.8808   -0.5110 O   0  0  0  0  0  0  0  0  0  0  0  0
    6.1052   -0.0540   -2.8637 O   0  0  0  0  0  0  0  0  0  0  0  0
    5.7649   -2.4299   -1.2243 O   0  0  0  0  0  0  0  0  0  0  0  0
    3.5543    1.4058   -3.0500 O   0  0  0  0  0  0  0  0  0  0  0  0
    5.0578   -2.9892    1.3179 O   0  0  0  0  0  0  0  0  0  0  0  0
    4.4102   -1.1120    2.4372 O   0  0  0  0  0  0  0  0  0  0  0  0
   -3.0095    1.0624    0.0107 O   0  0  0  0  0  0  0  0  0  0  0  0
    2.5844    3.2495    1.9017 O   0  0  0  0  0  0  0  0  0  0  0  0
   -1.2203   -1.7068    1.6592 O   0  0  0  0  0  0  0  0  0  0  0  0
   -3.6326   -2.8649    0.9008 O   0  0  0  0  0  0  0  0  0  0  0  0
   -5.9975   -2.7471   -0.2085 O   0  0  0  0  0  0  0  0  0  0  0  0
   -7.2788    1.4472   -2.0281 O   0  0  0  0  0  0  0  0  0  0  0  0
    4.9064   -0.3839   -2.1606 C   0  0  1  0  0  0  0  0  0  0  0  0
    5.2969   -1.1264   -0.8823 C   0  0  1  0  0  0  0  0  0  0  0  0
    4.1297    0.8954   -1.8476 C   0  0  2  0  0  0  0  0  0  0  0  0
    4.0990   -1.2653    0.0488 C   0  0  1  0  0  0  0  0  0  0  0  0
    3.0008    0.6280   -0.8517 C   0  0  1  0  0  0  0  0  0  0  0  0
    4.5234   -1.7461    1.3987 C   0  0  0  0  0  0  0  0  0  0  0  0
    1.3750    1.8465    0.3847 C   0  0  0  0  0  0  0  0  0  0  0  0
    0.2300    1.1180    0.0747 C   0  0  0  0  0  0  0  0  0  0  0  0
    1.4679    2.5332    1.5920 C   0  0  0  0  0  0  0  0  0  0  0  0
   -0.8308    1.0760    0.9796 C   0  0  0  0  0  0  0  0  0  0  0  0
   -2.0450    0.3055    0.6570 C   0  0  0  0  0  0  0  0  0  0  0  0
    0.4072    2.4911    2.4968 C   0  0  0  0  0  0  0  0  0  0  0  0
   -0.7421    1.7626    2.1907 C   0  0  0  0  0  0  0  0  0  0  0  0
   -2.1870   -0.9912    0.9865 C   0  0  0  0  0  0  0  0  0  0  0  0
   -4.4612   -0.8813   -0.0691 C   0  0  0  0  0  0  0  0  0  0  0  0
   -4.1879    0.4570   -0.3423 C   0  0  0  0  0  0  0  0  0  0  0  0
   -3.4470   -1.6863    0.6287 C   0  0  0  0  0  0  0  0  0  0  0  0
   -5.6809   -1.4448   -0.4520 C   0  0  0  0  0  0  0  0  0  0  0  0
   -5.1344    1.2423   -1.0010 C   0  0  0  0  0  0  0  0  0  0  0  0
   -6.3535    0.6833   -1.3850 C   0  0  0  0  0  0  0  0  0  0  0  0
   -6.6260   -0.6576   -1.1111 C   0  0  0  0  0  0  0  0  0  0  0  0
    4.3225   -1.0279   -2.8299 H   0  0  0  0  0  0  0  0  0  0  0  0
    6.1245   -0.6045   -0.3862 H   0  0  0  0  0  0  0  0  0  0  0  0
    4.8126    1.6644   -1.4657 H   0  0  0  0  0  0  0  0  0  0  0  0
    3.3330   -1.9519   -0.3326 H   0  0  0  0  0  0  0  0  0  0  0  0
    2.2470   -0.0167   -1.3225 H   0  0  0  0  0  0  0  0  0  0  0  0
    6.5784   -0.8855   -3.0383 H   0  0  0  0  0  0  0  0  0  0  0  0
    5.0397   -2.9044   -1.6654 H   0  0  0  0  0  0  0  0  0  0  0  0
    3.0547    2.2069   -2.8162 H   0  0  0  0  0  0  0  0  0  0  0  0
    0.1472    0.5975   -0.8763 H   0  0  0  0  0  0  0  0  0  0  0  0
    5.3446   -3.3225    2.1949 H   0  0  0  0  0  0  0  0  0  0  0  0
    0.4700    3.0239    3.4418 H   0  0  0  0  0  0  0  0  0  0  0  0
   -1.5608    1.7392    2.9058 H   0  0  0  0  0  0  0  0  0  0  0  0
    3.2150    3.1656    1.1654 H   0  0  0  0  0  0  0  0  0  0  0  0
   -4.9245    2.2871   -1.2153 H   0  0  0  0  0  0  0  0  0  0  0  0
   -7.5759   -1.0948   -1.4097 H   0  0  0  0  0  0  0  0  0  0  0  0
   -0.4521   -1.1399    1.8341 H   0  0  0  0  0  0  0  0  0  0  0  0
   -5.2688   -3.1951    0.2475 H   0  0  0  0  0  0  0  0  0  0  0  0
   -8.0609    0.9014   -2.2191 H   0  0  0  0  0  0  0  0  0  0  0  0
  1 17  1  0  0  0  0
  1 18  1  0  0  0  0
  2 18  1  0  0  0  0
  2 20  1  0  0  0  0
  3 14  1  0  0  0  0
  3 40  1  0  0  0  0
  4 15  1  0  0  0  0
  4 41  1  0  0  0  0
  5 16  1  0  0  0  0
  5 42  1  0  0  0  0
  6 19  1  0  0  0  0
  6 44  1  0  0  0  0
  7 19  2  0  0  0  0
  8 24  1  0  0  0  0
  8 29  1  0  0  0  0
  9 22  1  0  0  0  0
  9 47  1  0  0  0  0
 10 27  1  0  0  0  0
 10 50  1  0  0  0  0
 11 30  2  0  0  0  0
 12 31  1  0  0  0  0
 12 51  1  0  0  0  0
 13 33  1  0  0  0  0
 13 52  1  0  0  0  0
 14 15  1  0  0  0  0
 14 16  1  0  0  0  0
 14 35  1  0  0  0  0
 15 17  1  0  0  0  0
 15 36  1  0  0  0  0
 16 18  1  0  0  0  0
 16 37  1  0  0  0  0
 17 19  1  0  0  0  0
 17 38  1  0  0  0  0
 18 39  1  0  0  0  0
 20 21  1  0  0  0  0
 20 22  2  0  0  0  0
 21 23  2  0  0  0  0
 21 43  1  0  0  0  0
 22 25  1  0  0  0  0
 23 24  1  0  0  0  0
 23 26  1  0  0  0  0
 24 27  2  0  0  0  0
 25 26  2  0  0  0  0
 25 45  1  0  0  0  0
 26 46  1  0  0  0  0
 27 30  1  0  0  0  0
 28 29  1  0  0  0  0
 28 30  1  0  0  0  0
 28 31  2  0  0  0  0
 29 32  2  0  0  0  0
 31 34  1  0  0  0  0
 32 33  1  0  0  0  0
 32 48  1  0  0  0  0
 33 34  2  0  0  0  0
 34 49  1  0  0  0  0
M  END
> <PUBCHEM_COMPOUND_CID>
11655911

> <PUBCHEM_CONFORMER_RMSD>
0.8

> <PUBCHEM_CONFORMER_DIVERSEORDER>
1
172
134
162
26
73
146
187
2
69
179
105
158
177
10
91
128
90
110
17
195
22
148
41
121
9
113
51
165
136
133
67
103
138
57
191
101
140
183
88
74
152
5
192
11
19
190
154
156
29
35
106
36
181
184
78
18
71
34
62
77
94
119
142
141
84
96
168
87
175
145
131
102
43
28
150
7
99
196
4
173
47
182
108
178
118
65
193
143
186
180
115
79
153
59
60
161
75
167
198
97
126
95
53
15
70
38
3
98
50
160
199
44
125
31
64
6
27
120
14
63
81
137
55
159
122
171
169
111
66
185
116
42
155
49
188
46
170
139
24
8
72
86
82
93
83
61
58
157
164
85
151
124
30
76
135
117
39
45
12
89
40
174
80
32
48
112
144
54
109
37
100
194
33
16
132
127
200
20
104
189
68
147
130
129
52
149
107
21
166
56
13
92
176
25
123
163
201
114
197
23

> <PUBCHEM_MMFF94_PARTIAL_CHARGES>
47
1 -0.56
10 -0.53
11 -0.57
12 -0.53
13 -0.53
14 0.28
15 0.28
16 0.28
17 0.34
18 0.56
19 0.66
2 -0.36
20 0.08
21 -0.15
22 0.08
23 0.03
24 0.05
25 -0.15
26 -0.15
27 0.09
28 0.09
29 0.08
3 -0.68
30 0.47
31 0.08
32 -0.15
33 0.08
34 -0.15
4 -0.68
40 0.4
41 0.4
42 0.4
43 0.15
44 0.5
45 0.15
46 0.15
47 0.45
48 0.15
49 0.15
5 -0.68
50 0.45
51 0.45
52 0.45
6 -0.65
7 -0.57
8 -0.16
9 -0.53

> <PUBCHEM_EFFECTIVE_ROTOR_COUNT>
5.2

> <PUBCHEM_PHARMACOPHORE_FEATURES>
21
1 1 acceptor
1 10 donor
1 11 acceptor
1 12 donor
1 13 donor
1 2 acceptor
1 3 acceptor
1 3 donor
1 4 acceptor
1 4 donor
1 5 acceptor
1 5 donor
1 6 acceptor
1 7 acceptor
1 8 acceptor
1 9 donor
3 6 7 19 anion
6 1 14 15 16 17 18 rings
6 20 21 22 23 25 26 rings
6 28 29 31 32 33 34 rings
6 8 24 27 28 29 30 rings

> <PUBCHEM_HEAVY_ATOM_COUNT>
34

> <PUBCHEM_ATOM_DEF_STEREO_COUNT>
5

> <PUBCHEM_ATOM_UDEF_STEREO_COUNT>
0

> <PUBCHEM_BOND_DEF_STEREO_COUNT>
0

> <PUBCHEM_BOND_UDEF_STEREO_COUNT>
0

> <PUBCHEM_ISOTOPIC_ATOM_COUNT>
0

> <PUBCHEM_COMPONENT_COUNT>
1

> <PUBCHEM_CACTVS_TAUTO_COUNT>
174

> <PUBCHEM_CONFORMER_ID>
00B1DAE700000001

> <PUBCHEM_MMFF94_ENERGY>
105.6117

> <PUBCHEM_FEATURE_SELFOVERLAP>
106.745

> <PUBCHEM_SHAPE_FINGERPRINT>
10622 236 17826229597761348130
10721379 63 17530958095189876136
10794284 68 9868887148958859825
11796584 16 18408038537186906930
12124843 1 18334870411026090494
12403259 118 10159704542731172890
13540713 5 17202230531795699505
13782708 43 18200591540404193119
14840074 17 15574708102451652263
14910302 57 18188195590066374525
14931854 50 18261969487538246030
14950920 106 13182744684697098494
15003188 33 17894353267405334292
15183329 4 18187083927859800797
15188451 53 15482672355903175413
15721738 15 18410857620603174674
16992828 155 15598083323873539695
18222031 100 17418098719434261100
19309040 13 15070065275783646438
19377110 9 11455881456170884765
19958102 18 18115292480408866455
21223535 225 15864064360575970292
21279426 13 18411127053213293193
21315764 119 18186519882726752989
21781051 124 18113619019701254651
23559900 14 18338232777713136769
27425 322 14924238160897917602
3004659 81 18260266330877817434
376196 1 15577269015135714492
38570 142 15864073139879856765
392239 28 13110968604290639023
4098825 35 16950577596211216729
4394409 98 18341323410330686679
44880168 125 17269225790126376516
5252454 2 12685094821164980520
57307002 182 12391213982207939874
5951187 136 15647339714458198564
59682541 52 17240483576839573742
613672 6 17917993875630628910
633830 44 15864067702245466801
6443934 186 11959725001561674111
6523845 18 11747215719514728624
6608658 132 16515674573018640541
7970288 3 17703806807274636558
86090 222 16342882983012305110
960060 61 17894917338687844668
9689198 14 15647339585682688021

> <PUBCHEM_SHAPE_MULTIPOLES>
623.4
17.47
3.13
2.54
11
0.63
0.81
-10.68
10.26
-1.36
-1.96
-3.1
0.33
0.9

> <PUBCHEM_SHAPE_SELFOVERLAP>
1378.87

> <PUBCHEM_SHAPE_VOLUME>
329.1

> <PUBCHEM_COORDINATE_TYPE>
2
5
10

$$$$
