11701599
  -OEChem-03052615053D

 34 35  0     1  0  0  0  0  0999 V2000
    0.4242    0.5971   -0.3345 O   0  0  0  0  0  0  0  0  0  0  0  0
    3.9348   -1.5338   -0.3850 O   0  0  0  0  0  0  0  0  0  0  0  0
    3.9439    1.2323    0.4545 O   0  0  0  0  0  0  0  0  0  0  0  0
   -0.8486   -1.3564   -0.4228 O   0  0  0  0  0  0  0  0  0  0  0  0
    1.4147   -2.8421    0.4009 O   0  0  0  0  0  0  0  0  0  0  0  0
    0.2672    3.3018    0.1303 O   0  0  0  0  0  0  0  0  0  0  0  0
    2.8182   -0.8869    0.2275 C   0  0  1  0  0  0  0  0  0  0  0  0
    2.8433    0.5864   -0.1800 C   0  0  1  0  0  0  0  0  0  0  0  0
    1.5254   -1.5647   -0.2263 C   0  0  2  0  0  0  0  0  0  0  0  0
    1.5436    1.2846    0.2271 C   0  0  1  0  0  0  0  0  0  0  0  0
    0.2991   -0.7358    0.1558 C   0  0  1  0  0  0  0  0  0  0  0  0
    1.4962    2.7253   -0.2722 C   0  0  0  0  0  0  0  0  0  0  0  0
   -2.0532   -0.7498   -0.1944 C   0  0  0  0  0  0  0  0  0  0  0  0
   -2.5099   -0.5904    1.1103 C   0  0  0  0  0  0  0  0  0  0  0  0
   -2.8133   -0.2975   -1.2686 C   0  0  0  0  0  0  0  0  0  0  0  0
   -3.7387    0.0273    1.3431 C   0  0  0  0  0  0  0  0  0  0  0  0
   -4.0420    0.3202   -1.0358 C   0  0  0  0  0  0  0  0  0  0  0  0
   -4.5048    0.4826    0.2701 C   0  0  0  0  0  0  0  0  0  0  0  0
    2.9523   -0.9975    1.3107 H   0  0  0  0  0  0  0  0  0  0  0  0
    2.9987    0.6622   -1.2633 H   0  0  0  0  0  0  0  0  0  0  0  0
    1.5497   -1.7436   -1.3078 H   0  0  0  0  0  0  0  0  0  0  0  0
    1.4299    1.3008    1.3197 H   0  0  0  0  0  0  0  0  0  0  0  0
    0.1916   -0.7223    1.2484 H   0  0  0  0  0  0  0  0  0  0  0  0
    1.5449    2.7724   -1.3652 H   0  0  0  0  0  0  0  0  0  0  0  0
    2.3108    3.3252    0.1434 H   0  0  0  0  0  0  0  0  0  0  0  0
    4.7377   -1.0722   -0.0878 H   0  0  0  0  0  0  0  0  0  0  0  0
    3.8109    1.1765    1.4162 H   0  0  0  0  0  0  0  0  0  0  0  0
    1.3932   -2.7050    1.3634 H   0  0  0  0  0  0  0  0  0  0  0  0
   -0.4487    2.7562   -0.2383 H   0  0  0  0  0  0  0  0  0  0  0  0
   -1.9364   -0.9547    1.9575 H   0  0  0  0  0  0  0  0  0  0  0  0
   -2.4566   -0.4214   -2.2872 H   0  0  0  0  0  0  0  0  0  0  0  0
   -4.1011    0.1499    2.3596 H   0  0  0  0  0  0  0  0  0  0  0  0
   -4.6386    0.6747   -1.8713 H   0  0  0  0  0  0  0  0  0  0  0  0
   -5.4620    0.9627    0.4513 H   0  0  0  0  0  0  0  0  0  0  0  0
  1 10  1  0  0  0  0
  1 11  1  0  0  0  0
  2  7  1  0  0  0  0
  2 26  1  0  0  0  0
  3  8  1  0  0  0  0
  3 27  1  0  0  0  0
  4 11  1  0  0  0  0
  4 13  1  0  0  0  0
  5  9  1  0  0  0  0
  5 28  1  0  0  0  0
  6 12  1  0  0  0  0
  6 29  1  0  0  0  0
  7  8  1  0  0  0  0
  7  9  1  0  0  0  0
  7 19  1  0  0  0  0
  8 10  1  0  0  0  0
  8 20  1  0  0  0  0
  9 11  1  0  0  0  0
  9 21  1  0  0  0  0
 10 12  1  0  0  0  0
 10 22  1  0  0  0  0
 11 23  1  0  0  0  0
 12 24  1  0  0  0  0
 12 25  1  0  0  0  0
 13 14  2  0  0  0  0
 13 15  1  0  0  0  0
 14 16  1  0  0  0  0
 14 30  1  0  0  0  0
 15 17  2  0  0  0  0
 15 31  1  0  0  0  0
 16 18  2  0  0  0  0
 16 32  1  0  0  0  0
 17 18  1  0  0  0  0
 17 33  1  0  0  0  0
 18 34  1  0  0  0  0
M  END
> <PUBCHEM_COMPOUND_CID>
11701599

> <PUBCHEM_CONFORMER_RMSD>
0.6

> <PUBCHEM_CONFORMER_DIVERSEORDER>
2
48
62
80
6
70
25
91
76
51
18
61
82
54
74
50
87
46
79
57
36
12
86
68
33
32
16
72
89
71
84
88
19
41
14
42
11
47
45
85
83
67
10
40
4
53
63
77
24
56
44
1
20
78
27
60
15
22
90
31
30
75
69
64
26
3
43
28
49
38
59
9
37
5
55
73
58
7
29
34
81
39
8
21
65
23
66
13
35
17
52

> <PUBCHEM_MMFF94_PARTIAL_CHARGES>
27
1 -0.56
10 0.28
11 0.56
12 0.28
13 0.08
14 -0.15
15 -0.15
16 -0.15
17 -0.15
18 -0.15
2 -0.68
26 0.4
27 0.4
28 0.4
29 0.4
3 -0.68
30 0.15
31 0.15
32 0.15
33 0.15
34 0.15
4 -0.36
5 -0.68
6 -0.68
7 0.28
8 0.28
9 0.28

> <PUBCHEM_EFFECTIVE_ROTOR_COUNT>
4.2

> <PUBCHEM_PHARMACOPHORE_FEATURES>
12
1 1 acceptor
1 2 acceptor
1 2 donor
1 3 acceptor
1 3 donor
1 4 acceptor
1 5 acceptor
1 5 donor
1 6 acceptor
1 6 donor
6 1 7 8 9 10 11 rings
6 13 14 15 16 17 18 rings

> <PUBCHEM_HEAVY_ATOM_COUNT>
18

> <PUBCHEM_ATOM_DEF_STEREO_COUNT>
4

> <PUBCHEM_ATOM_UDEF_STEREO_COUNT>
1

> <PUBCHEM_BOND_DEF_STEREO_COUNT>
0

> <PUBCHEM_BOND_UDEF_STEREO_COUNT>
0

> <PUBCHEM_ISOTOPIC_ATOM_COUNT>
0

> <PUBCHEM_COMPONENT_COUNT>
1

> <PUBCHEM_CACTVS_TAUTO_COUNT>
1

> <PUBCHEM_CONFORMER_ID>
00B28D5F00000002

> <PUBCHEM_MMFF94_ENERGY>
57.2748

> <PUBCHEM_FEATURE_SELFOVERLAP>
60.959

> <PUBCHEM_SHAPE_FINGERPRINT>
10366900 7 17749392572547661595
104564 63 18124600786234116884
10980938 120 18410008840554365038
11471102 20 18410008836185421358
11640471 11 17775297083603905073
116883 192 18198345044241771300
12236239 1 17775565326065944791
12654215 9 18261105262381052798
13134695 92 18410005516360382988
13140716 1 18193555794639399536
14790565 3 18193003831772295948
15219456 202 18186239532852177127
15653759 3 17240483619794320011
16945 1 18409728473636947278
1813 80 17770797714282678710
18186145 218 18341620346951707494
18219364 16 18261671584005192061
18785283 64 18043263537628414293
19049666 15 17678449775852159055
200 152 18201150053529647511
20645476 183 17988917912357414927
20645477 70 18341045237835355078
20671657 1 18341333408908491197
20681677 76 18261393416385557475
21041028 32 18192994820381282337
21524375 3 18122625230016102094
21639500 275 18339352080423151141
22094290 62 18340769342026085457
22289505 5 18263350400843082061
22854114 111 18411141354948064379
23175994 123 18263089833566642839
23184049 59 18341896285588797623
23559900 14 16806166532017937443
23598291 2 18059847372757216727
25 1 18334857242286516630
2748010 2 18337940191808700548
3472631 163 15769781230410730153
350125 39 17977109285717379595
474 4 18339921627303862297
602551 16 16153721958834503227
74978 22 18341332300812164551
77492 1 17703788107145141479
7832392 63 18270678783122939126
81228 2 17903639583873742112
84936 182 17771902998103725480
9971528 1 18273210885571658452
9981440 41 17264668696302020824

> <PUBCHEM_SHAPE_MULTIPOLES>
335.22
7.71
2.57
1
3.58
1.32
-0.03
0.13
-0.24
-2.55
-0.05
1.06
-0.05
0.13

> <PUBCHEM_SHAPE_SELFOVERLAP>
699.988

> <PUBCHEM_SHAPE_VOLUME>
187.5

> <PUBCHEM_COORDINATE_TYPE>
2
5
10

$$$$
