119041
  -OEChem-03052615003D

 63 68  0     1  0  0  0  0  0999 V2000
   -2.0062   -1.9315   -1.4169 O   0  0  0  0  0  0  0  0  0  0  0  0
   -4.0322   -1.2014    0.5392 O   0  0  0  0  0  0  0  0  0  0  0  0
    0.4478   -2.2775    1.5140 O   0  0  0  0  0  0  0  0  0  0  0  0
    5.2101    0.8795   -0.0419 O   0  0  0  0  0  0  0  0  0  0  0  0
   -3.8401   -3.3980    1.0752 O   0  0  0  0  0  0  0  0  0  0  0  0
   -5.6832    2.6454    1.1367 O   0  0  0  0  0  0  0  0  0  0  0  0
    5.5443    2.4167    1.6094 O   0  0  0  0  0  0  0  0  0  0  0  0
   -1.2963   -1.1565   -0.4152 C   0  0  1  0  0  0  0  0  0  0  0  0
    0.2581   -1.1530   -0.6325 C   0  0  1  0  0  0  0  0  0  0  0  0
   -2.0149    0.1527   -0.0758 C   0  0  1  0  0  0  0  0  0  0  0  0
    0.8025    0.3246   -0.6582 C   0  0  1  0  0  0  0  0  0  0  0  0
   -2.0396   -2.4382   -0.0857 C   0  0  1  0  0  0  0  0  0  0  0  0
    2.3840    0.5331   -0.7830 C   0  0  1  0  0  0  0  0  0  0  0  0
   -1.5357    1.2589   -1.0622 C   0  0  0  0  0  0  0  0  0  0  0  0
   -0.0992    1.1354   -1.6021 C   0  0  0  0  0  0  0  0  0  0  0  0
   -3.5713   -0.0669   -0.2538 C   0  0  2  0  0  0  0  0  0  0  0  0
    3.0909   -0.3827    0.3151 C   0  0  1  0  0  0  0  0  0  0  0  0
    1.0085   -1.7964    0.5308 C   0  0  0  0  0  0  0  0  0  0  0  0
    0.5761   -1.9688   -1.9126 C   0  0  0  0  0  0  0  0  0  0  0  0
    2.5177   -1.8085    0.4202 C   0  0  0  0  0  0  0  0  0  0  0  0
   -1.7378    0.5170    1.4075 C   0  0  0  0  0  0  0  0  0  0  0  0
   -3.3745   -2.3970    0.5449 C   0  0  0  0  0  0  0  0  0  0  0  0
    4.6639   -0.4070    0.3305 C   0  0  0  0  0  0  0  0  0  0  0  0
    2.8930    0.3185   -2.2167 C   0  0  0  0  0  0  0  0  0  0  0  0
    2.6647    2.0242   -0.4782 C   0  0  0  0  0  0  0  0  0  0  0  0
   -4.4367    1.1484    0.0392 C   0  0  0  0  0  0  0  0  0  0  0  0
    5.1979   -0.7754    1.7342 C   0  0  0  0  0  0  0  0  0  0  0  0
    5.2974   -1.4027   -0.6570 C   0  0  0  0  0  0  0  0  0  0  0  0
    3.6696    2.6150    0.1817 C   0  0  0  0  0  0  0  0  0  0  0  0
   -4.8482    2.1278   -0.8849 C   0  0  0  0  0  0  0  0  0  0  0  0
   -4.9637    1.4987    1.2524 C   0  0  0  0  0  0  0  0  0  0  0  0
    4.8610    1.9440    0.7125 C   0  0  0  0  0  0  0  0  0  0  0  0
   -5.6079    3.0218   -0.1669 C   0  0  0  0  0  0  0  0  0  0  0  0
    0.6182    0.7499    0.3338 H   0  0  0  0  0  0  0  0  0  0  0  0
   -1.4640   -3.3364    0.1039 H   0  0  0  0  0  0  0  0  0  0  0  0
   -1.6488    2.2413   -0.5858 H   0  0  0  0  0  0  0  0  0  0  0  0
   -2.1887    1.2837   -1.9443 H   0  0  0  0  0  0  0  0  0  0  0  0
   -0.1318    0.6611   -2.5896 H   0  0  0  0  0  0  0  0  0  0  0  0
    0.2674    2.1464   -1.7923 H   0  0  0  0  0  0  0  0  0  0  0  0
   -3.7894   -0.3361   -1.2974 H   0  0  0  0  0  0  0  0  0  0  0  0
    2.7974    0.0904    1.2679 H   0  0  0  0  0  0  0  0  0  0  0  0
    0.1257   -1.5235   -2.8052 H   0  0  0  0  0  0  0  0  0  0  0  0
    1.6361   -2.0984   -2.1115 H   0  0  0  0  0  0  0  0  0  0  0  0
    0.1907   -2.9928   -1.8268 H   0  0  0  0  0  0  0  0  0  0  0  0
    2.8987   -2.3051    1.3197 H   0  0  0  0  0  0  0  0  0  0  0  0
    2.8055   -2.4396   -0.4228 H   0  0  0  0  0  0  0  0  0  0  0  0
   -2.0359    1.5475    1.6271 H   0  0  0  0  0  0  0  0  0  0  0  0
   -2.2936   -0.1379    2.0882 H   0  0  0  0  0  0  0  0  0  0  0  0
   -0.6958    0.4103    1.7088 H   0  0  0  0  0  0  0  0  0  0  0  0
    3.8866    0.7583   -2.3652 H   0  0  0  0  0  0  0  0  0  0  0  0
    2.9853   -0.7322   -2.4841 H   0  0  0  0  0  0  0  0  0  0  0  0
    2.2389    0.7920   -2.9566 H   0  0  0  0  0  0  0  0  0  0  0  0
    1.9221    2.7319   -0.8377 H   0  0  0  0  0  0  0  0  0  0  0  0
    4.7599   -0.1374    2.5096 H   0  0  0  0  0  0  0  0  0  0  0  0
    4.9855   -1.8162    1.9968 H   0  0  0  0  0  0  0  0  0  0  0  0
    6.2829   -0.6262    1.7874 H   0  0  0  0  0  0  0  0  0  0  0  0
    5.0158   -1.1978   -1.6913 H   0  0  0  0  0  0  0  0  0  0  0  0
    6.3912   -1.3179   -0.6319 H   0  0  0  0  0  0  0  0  0  0  0  0
    5.0457   -2.4418   -0.4255 H   0  0  0  0  0  0  0  0  0  0  0  0
    3.6344    3.6895    0.3408 H   0  0  0  0  0  0  0  0  0  0  0  0
   -4.6277    2.1848   -1.9411 H   0  0  0  0  0  0  0  0  0  0  0  0
   -4.9271    1.0698    2.2434 H   0  0  0  0  0  0  0  0  0  0  0  0
   -6.1367    3.9283   -0.4229 H   0  0  0  0  0  0  0  0  0  0  0  0
  1  8  1  0  0  0  0
  1 12  1  0  0  0  0
  2 16  1  0  0  0  0
  2 22  1  0  0  0  0
  3 18  2  0  0  0  0
  4 23  1  0  0  0  0
  4 32  1  0  0  0  0
  5 22  2  0  0  0  0
  6 31  1  0  0  0  0
  6 33  1  0  0  0  0
  7 32  2  0  0  0  0
  8  9  1  0  0  0  0
  8 10  1  0  0  0  0
  8 12  1  0  0  0  0
  9 11  1  0  0  0  0
  9 18  1  0  0  0  0
  9 19  1  0  0  0  0
 10 14  1  0  0  0  0
 10 16  1  0  0  0  0
 10 21  1  0  0  0  0
 11 13  1  0  0  0  0
 11 15  1  0  0  0  0
 11 34  1  0  0  0  0
 12 22  1  0  0  0  0
 12 35  1  0  0  0  0
 13 17  1  0  0  0  0
 13 24  1  0  0  0  0
 13 25  1  0  0  0  0
 14 15  1  0  0  0  0
 14 36  1  0  0  0  0
 14 37  1  0  0  0  0
 15 38  1  0  0  0  0
 15 39  1  0  0  0  0
 16 26  1  0  0  0  0
 16 40  1  0  0  0  0
 17 20  1  0  0  0  0
 17 23  1  0  0  0  0
 17 41  1  0  0  0  0
 18 20  1  0  0  0  0
 19 42  1  0  0  0  0
 19 43  1  0  0  0  0
 19 44  1  0  0  0  0
 20 45  1  0  0  0  0
 20 46  1  0  0  0  0
 21 47  1  0  0  0  0
 21 48  1  0  0  0  0
 21 49  1  0  0  0  0
 23 27  1  0  0  0  0
 23 28  1  0  0  0  0
 24 50  1  0  0  0  0
 24 51  1  0  0  0  0
 24 52  1  0  0  0  0
 25 29  2  0  0  0  0
 25 53  1  0  0  0  0
 26 30  1  0  0  0  0
 26 31  2  0  0  0  0
 27 54  1  0  0  0  0
 27 55  1  0  0  0  0
 27 56  1  0  0  0  0
 28 57  1  0  0  0  0
 28 58  1  0  0  0  0
 28 59  1  0  0  0  0
 29 32  1  0  0  0  0
 29 60  1  0  0  0  0
 30 33  2  0  0  0  0
 30 61  1  0  0  0  0
 31 62  1  0  0  0  0
 33 63  1  0  0  0  0
M  END
> <PUBCHEM_COMPOUND_CID>
119041

> <PUBCHEM_CONFORMER_RMSD>
0.8

> <PUBCHEM_CONFORMER_DIVERSEORDER>
1
2

> <PUBCHEM_MMFF94_PARTIAL_CHARGES>
30
1 -0.3
10 0.09
12 0.05
13 0.14
16 0.46
18 0.45
2 -0.43
20 0.06
22 0.72
23 0.28
25 -0.29
26 -0.18
29 -0.14
3 -0.57
30 -0.15
31 -0.01
32 0.71
33 -0.01
35 0.1
4 -0.43
5 -0.57
53 0.15
6 -0.28
60 0.15
61 0.15
62 0.15
63 0.15
7 -0.57
8 -0.04
9 0.16

> <PUBCHEM_EFFECTIVE_ROTOR_COUNT>
2.6

> <PUBCHEM_PHARMACOPHORE_FEATURES>
11
1 1 acceptor
1 3 acceptor
1 5 acceptor
1 6 acceptor
1 7 acceptor
3 23 27 28 hydrophobe
5 6 26 30 31 33 rings
6 8 9 10 11 14 15 rings
6 9 11 13 17 18 20 rings
7 1 2 8 10 12 16 22 rings
7 4 13 17 23 25 29 32 rings

> <PUBCHEM_HEAVY_ATOM_COUNT>
33

> <PUBCHEM_ATOM_DEF_STEREO_COUNT>
8

> <PUBCHEM_ATOM_UDEF_STEREO_COUNT>
0

> <PUBCHEM_BOND_DEF_STEREO_COUNT>
0

> <PUBCHEM_BOND_UDEF_STEREO_COUNT>
0

> <PUBCHEM_ISOTOPIC_ATOM_COUNT>
0

> <PUBCHEM_COMPONENT_COUNT>
1

> <PUBCHEM_CACTVS_TAUTO_COUNT>
2

> <PUBCHEM_CONFORMER_ID>
0001D10100000001

> <PUBCHEM_MMFF94_ENERGY>
144.7027

> <PUBCHEM_FEATURE_SELFOVERLAP>
55.868

> <PUBCHEM_SHAPE_FINGERPRINT>
10319926 262 18407764741627532490
10674148 151 18409172122114412540
10675989 125 17764872395108630081
10928967 22 12540697058616981233
11135609 201 17846788408090253001
11370993 144 18412260631988950140
11405975 8 18408040723335796952
12107183 9 18263636278124302386
12403259 118 18341323474464506154
12422481 6 18113894927434809636
12633257 1 18260540091787069218
12788726 201 17829348117415946141
12892183 10 18264488575597690142
12925494 130 18412538825832816513
131258 38 13486521258293288457
13140716 1 18334573551143403308
13224815 77 18187361069204161494
14068700 675 15049219441954050502
14178342 30 18187932836746371647
144659 39 18272933834084280231
14790565 3 18189623898546773068
14950920 106 15430330139386570349
15131766 46 15432599638870850607
15238133 3 18262529095426524740
16994733 274 16415206603826261969
17492 54 12463272757588344394
17980427 23 18411981377853450717
1813 80 16515676793173561518
19246450 95 17611157400547503536
20511986 3 18337093610846976181
20691752 17 17022897986793003286
20715895 44 18200312113325094145
21033648 144 18409438181182335165
21033648 29 17845636119651239882
21421861 104 17459745917807913018
21859007 373 17533487938180271989
22182313 1 18058192595036425703
22950370 63 10953744382875350525
23227448 37 18409165515383683311
23522609 53 17677351484317258564
23559900 14 17987531320345950814
23569914 2 17270271588678022032
2838139 119 18270675368671547933
3117164 225 18335700520497135128
335352 9 18337954485285691246
3633792 109 18189034457746364005
3680242 22 18261104128778796880
3862424 121 13697256672092749048
392239 28 17676756643925189322
4144715 1 18409458002620209034
4340502 62 18339651036338892405
46194498 28 12175034619860971577
5104073 3 18334566971643902946
59755656 215 18267872670661529318
7064713 232 18334575750098093540
7970288 3 10665238050627488057
9981440 41 18343585148935798459

> <PUBCHEM_SHAPE_MULTIPOLES>
638.04
12.9
3.45
1.57
0.52
0.19
-0.22
-8.16
4.31
2.43
0.64
-0.66
0.06
0.55

> <PUBCHEM_SHAPE_SELFOVERLAP>
1401.598

> <PUBCHEM_SHAPE_VOLUME>
340.4

> <PUBCHEM_COORDINATE_TYPE>
2
5
10

$$$$
