14144577
  -OEChem-02172602443D

 23 24  0     0  0  0  0  0  0999 V2000
   -2.7987   -0.1501   -0.5429 O   0  0  0  0  0  0  0  0  0  0  0  0
    4.5942    0.1229    0.3615 O   0  0  0  0  0  0  0  0  0  0  0  0
   -1.5926    0.4836   -0.3095 N   0  0  0  0  0  0  0  0  0  0  0  0
   -0.2698    2.1390    0.0841 N   0  0  0  0  0  0  0  0  0  0  0  0
   -1.5425    1.8113   -0.1119 N   0  0  0  0  0  0  0  0  0  0  0  0
   -0.3536   -0.0857   -0.2469 C   0  0  0  0  0  0  0  0  0  0  0  0
    0.4798    0.9950    0.0066 C   0  0  0  0  0  0  0  0  0  0  0  0
    0.1020   -1.3954   -0.3827 C   0  0  0  0  0  0  0  0  0  0  0  0
    1.8604    0.7855    0.1381 C   0  0  0  0  0  0  0  0  0  0  0  0
    2.3457   -0.5221    0.0064 C   0  0  0  0  0  0  0  0  0  0  0  0
    1.4812   -1.5910   -0.2493 C   0  0  0  0  0  0  0  0  0  0  0  0
   -3.3804   -0.5663    0.6998 C   0  0  0  0  0  0  0  0  0  0  0  0
   -4.6992   -1.2564    0.4101 C   0  0  0  0  0  0  0  0  0  0  0  0
    3.7735   -0.7704    0.1367 C   0  0  0  0  0  0  0  0  0  0  0  0
   -0.5708   -2.2217   -0.5807 H   0  0  0  0  0  0  0  0  0  0  0  0
    2.5192    1.6249    0.3362 H   0  0  0  0  0  0  0  0  0  0  0  0
    1.8720   -2.6016   -0.3496 H   0  0  0  0  0  0  0  0  0  0  0  0
   -2.7072   -1.2619    1.2141 H   0  0  0  0  0  0  0  0  0  0  0  0
   -3.5544    0.3066    1.3398 H   0  0  0  0  0  0  0  0  0  0  0  0
   -5.1772   -1.5896    1.3356 H   0  0  0  0  0  0  0  0  0  0  0  0
   -5.3804   -0.5798   -0.1165 H   0  0  0  0  0  0  0  0  0  0  0  0
   -4.5450   -2.1235   -0.2407 H   0  0  0  0  0  0  0  0  0  0  0  0
    4.1074   -1.8160    0.0246 H   0  0  0  0  0  0  0  0  0  0  0  0
  1  3  1  0  0  0  0
  1 12  1  0  0  0  0
  2 14  2  0  0  0  0
  3  5  1  0  0  0  0
  3  6  1  0  0  0  0
  4  5  2  0  0  0  0
  4  7  1  0  0  0  0
  6  7  2  0  0  0  0
  6  8  1  0  0  0  0
  7  9  1  0  0  0  0
  8 11  2  0  0  0  0
  8 15  1  0  0  0  0
  9 10  2  0  0  0  0
  9 16  1  0  0  0  0
 10 11  1  0  0  0  0
 10 14  1  0  0  0  0
 11 17  1  0  0  0  0
 12 13  1  0  0  0  0
 12 18  1  0  0  0  0
 12 19  1  0  0  0  0
 13 20  1  0  0  0  0
 13 21  1  0  0  0  0
 13 22  1  0  0  0  0
 14 23  1  0  0  0  0
M  END
> <PUBCHEM_COMPOUND_CID>
14144577

> <PUBCHEM_CONFORMER_RMSD>
0.6

> <PUBCHEM_CONFORMER_DIVERSEORDER>
1
4
2
3
6
5
7

> <PUBCHEM_MMFF94_PARTIAL_CHARGES>
17
1 -0.42
10 0.09
11 -0.15
12 0.28
14 0.42
15 0.15
16 0.15
17 0.15
2 -0.57
23 0.06
3 0.71
4 -0.23
5 -0.42
6 -0.15
7 0.23
8 -0.15
9 -0.15

> <PUBCHEM_EFFECTIVE_ROTOR_COUNT>
3

> <PUBCHEM_PHARMACOPHORE_FEATURES>
3
1 2 acceptor
5 3 4 5 6 7 rings
6 6 7 8 9 10 11 rings

> <PUBCHEM_HEAVY_ATOM_COUNT>
14

> <PUBCHEM_ATOM_DEF_STEREO_COUNT>
0

> <PUBCHEM_ATOM_UDEF_STEREO_COUNT>
0

> <PUBCHEM_BOND_DEF_STEREO_COUNT>
0

> <PUBCHEM_BOND_UDEF_STEREO_COUNT>
0

> <PUBCHEM_ISOTOPIC_ATOM_COUNT>
0

> <PUBCHEM_COMPONENT_COUNT>
1

> <PUBCHEM_CACTVS_TAUTO_COUNT>
1

> <PUBCHEM_CONFORMER_ID>
00D7D44100000001

> <PUBCHEM_MMFF94_ENERGY>
20.911

> <PUBCHEM_FEATURE_SELFOVERLAP>
15.327

> <PUBCHEM_SHAPE_FINGERPRINT>
10219947 1 18341335577924835347
108231 29 18411982481032063993
11132069 177 18201431497681879694
11543360 7 15791740727557981750
11806522 49 18408041831426803215
12032990 46 18411704257614803414
12251169 10 18060140963947471043
13140716 1 18196929096619416834
13214271 11 18341609283295151765
13862211 1 18411412934093843462
14252887 29 18130799944386957671
14325111 11 18268424647184420924
14943859 89 13183020717734142351
16945 1 18271231768794243286
17844478 74 18341050735414137808
20201158 50 18261115175308341123
20510252 161 18201155456160500248
20871998 184 18201153248114611524
20871998 22 18271257023191582767
21029758 27 18334861644622856964
21501925 9 18408604772737386515
23402539 116 18260260841482280359
23559900 14 18049152281615415370
25610 137 18410294700798069516
2748010 2 18054786183200560654
3312278 4 18337669698646621137
43471831 8 18263077717627957426
5104073 3 18269548348115507658
537710 114 18337116764815553124
8809292 202 18114187496591945739

> <PUBCHEM_SHAPE_MULTIPOLES>
261.43
7.18
1.76
0.69
2.05
0.53
-0.02
-2.88
-1.55
0.34
0.05
0.15
-0.07
0.3

> <PUBCHEM_SHAPE_SELFOVERLAP>
556.455

> <PUBCHEM_SHAPE_VOLUME>
147.7

> <PUBCHEM_COORDINATE_TYPE>
2
5
10

$$$$
