101372583
  -OEChem-02172602493D

 43 44  0     1  0  0  0  0  0999 V2000
    0.6011   -0.8611   -1.8177 O   0  0  0  0  0  0  0  0  0  0  0  0
    2.5722   -0.4609    0.2813 O   0  0  0  0  0  0  0  0  0  0  0  0
    0.8585    1.4626   -0.7719 O   0  0  0  0  0  0  0  0  0  0  0  0
   -1.6610    1.8259   -1.4356 O   0  0  0  0  0  0  0  0  0  0  0  0
    3.2722   -0.9998    2.4159 O   0  0  0  0  0  0  0  0  0  0  0  0
    0.7010    3.0521    0.8970 O   0  0  0  0  0  0  0  0  0  0  0  0
    0.2831   -0.8121   -0.4210 C   0  0  1  0  0  0  0  0  0  0  0  0
    1.4563   -1.3401    0.4166 C   0  0  1  0  0  0  0  0  0  0  0  0
    1.8635   -2.7398   -0.0437 C   0  0  0  0  0  0  0  0  0  0  0  0
    2.0623   -2.7823   -1.5567 C   0  0  0  0  0  0  0  0  0  0  0  0
   -0.0685    0.6322   -0.0836 C   0  0  2  0  0  0  0  0  0  0  0  0
    0.8574   -2.1888   -2.2728 C   0  0  0  0  0  0  0  0  0  0  0  0
   -1.4729    0.9868   -0.5558 C   0  0  0  0  0  0  0  0  0  0  0  0
   -2.6529    0.3022    0.0474 C   0  0  0  0  0  0  0  0  0  0  0  0
    3.4013   -0.3888    1.3637 C   0  0  0  0  0  0  0  0  0  0  0  0
    1.1561    2.6514   -0.1658 C   0  0  0  0  0  0  0  0  0  0  0  0
   -2.6012   -0.1437    1.3681 C   0  0  0  0  0  0  0  0  0  0  0  0
   -3.8087    0.1092   -0.7090 C   0  0  0  0  0  0  0  0  0  0  0  0
    4.5207    0.5663    1.0798 C   0  0  0  0  0  0  0  0  0  0  0  0
    2.1387    3.4166   -0.9996 C   0  0  0  0  0  0  0  0  0  0  0  0
   -3.7053   -0.7827    1.9324 C   0  0  0  0  0  0  0  0  0  0  0  0
   -4.9129   -0.5296   -0.1449 C   0  0  0  0  0  0  0  0  0  0  0  0
   -4.8612   -0.9756    1.1758 C   0  0  0  0  0  0  0  0  0  0  0  0
   -0.5795   -1.4673   -0.2475 H   0  0  0  0  0  0  0  0  0  0  0  0
    1.1287   -1.3809    1.4637 H   0  0  0  0  0  0  0  0  0  0  0  0
    1.0788   -3.4545    0.2335 H   0  0  0  0  0  0  0  0  0  0  0  0
    2.7886   -3.0608    0.4479 H   0  0  0  0  0  0  0  0  0  0  0  0
    2.9564   -2.2011   -1.8131 H   0  0  0  0  0  0  0  0  0  0  0  0
    2.2325   -3.8121   -1.8881 H   0  0  0  0  0  0  0  0  0  0  0  0
   -0.0046    0.7956    0.9974 H   0  0  0  0  0  0  0  0  0  0  0  0
    1.0517   -2.1401   -3.3489 H   0  0  0  0  0  0  0  0  0  0  0  0
   -0.0378   -2.8046   -2.1267 H   0  0  0  0  0  0  0  0  0  0  0  0
   -1.7250   -0.0005    1.9918 H   0  0  0  0  0  0  0  0  0  0  0  0
   -3.8658    0.4456   -1.7408 H   0  0  0  0  0  0  0  0  0  0  0  0
    5.0367    0.2728    0.1620 H   0  0  0  0  0  0  0  0  0  0  0  0
    5.2401    0.5366    1.9031 H   0  0  0  0  0  0  0  0  0  0  0  0
    4.1266    1.5815    0.9923 H   0  0  0  0  0  0  0  0  0  0  0  0
    3.0393    2.8173   -1.1553 H   0  0  0  0  0  0  0  0  0  0  0  0
    2.4204    4.3352   -0.4770 H   0  0  0  0  0  0  0  0  0  0  0  0
    1.6828    3.6818   -1.9566 H   0  0  0  0  0  0  0  0  0  0  0  0
   -3.6665   -1.1276    2.9616 H   0  0  0  0  0  0  0  0  0  0  0  0
   -5.8126   -0.6809   -0.7341 H   0  0  0  0  0  0  0  0  0  0  0  0
   -5.7211   -1.4727    1.6151 H   0  0  0  0  0  0  0  0  0  0  0  0
  1  7  1  0  0  0  0
  1 12  1  0  0  0  0
  2  8  1  0  0  0  0
  2 15  1  0  0  0  0
  3 11  1  0  0  0  0
  3 16  1  0  0  0  0
  4 13  2  0  0  0  0
  5 15  2  0  0  0  0
  6 16  2  0  0  0  0
  7  8  1  0  0  0  0
  7 11  1  0  0  0  0
  7 24  1  0  0  0  0
  8  9  1  0  0  0  0
  8 25  1  0  0  0  0
  9 10  1  0  0  0  0
  9 26  1  0  0  0  0
  9 27  1  0  0  0  0
 10 12  1  0  0  0  0
 10 28  1  0  0  0  0
 10 29  1  0  0  0  0
 11 13  1  0  0  0  0
 11 30  1  0  0  0  0
 12 31  1  0  0  0  0
 12 32  1  0  0  0  0
 13 14  1  0  0  0  0
 14 17  2  0  0  0  0
 14 18  1  0  0  0  0
 15 19  1  0  0  0  0
 16 20  1  0  0  0  0
 17 21  1  0  0  0  0
 17 33  1  0  0  0  0
 18 22  2  0  0  0  0
 18 34  1  0  0  0  0
 19 35  1  0  0  0  0
 19 36  1  0  0  0  0
 19 37  1  0  0  0  0
 20 38  1  0  0  0  0
 20 39  1  0  0  0  0
 20 40  1  0  0  0  0
 21 23  2  0  0  0  0
 21 41  1  0  0  0  0
 22 23  1  0  0  0  0
 22 42  1  0  0  0  0
 23 43  1  0  0  0  0
M  END
> <PUBCHEM_COMPOUND_CID>
101372583

> <PUBCHEM_CONFORMER_RMSD>
0.8

> <PUBCHEM_CONFORMER_DIVERSEORDER>
1
105
39
35
26
20
97
101
73
67
78
98
70
94
102
96
42
27
100
48
83
92
86
24
68
41
90
30
52
91
16
79
77
60
13
61
4
74
50
85
104
81
84
38
33
49
58
75
53
7
103
69
66
28
17
99
51
44
12
57
10
95
55
87
37
59
15
9
76
64
88
29
82
23
47
25
63
65
36
72
8
89
11
14
19
54
62
21
40
18
32
3
43
80
93
31
22
45
6
2
5
34
71
46
56

> <PUBCHEM_MMFF94_PARTIAL_CHARGES>
26
1 -0.56
11 0.34
12 0.28
13 0.42
14 0.09
15 0.66
16 0.66
17 -0.15
18 -0.15
19 0.06
2 -0.43
20 0.06
21 -0.15
22 -0.15
23 -0.15
3 -0.43
33 0.15
34 0.15
4 -0.57
41 0.15
42 0.15
43 0.15
5 -0.57
6 -0.57
7 0.28
8 0.28

> <PUBCHEM_EFFECTIVE_ROTOR_COUNT>
8.2

> <PUBCHEM_PHARMACOPHORE_FEATURES>
6
1 1 acceptor
1 4 acceptor
1 5 acceptor
1 6 acceptor
6 1 7 8 9 10 12 rings
6 14 17 18 21 22 23 rings

> <PUBCHEM_HEAVY_ATOM_COUNT>
23

> <PUBCHEM_ATOM_DEF_STEREO_COUNT>
3

> <PUBCHEM_ATOM_UDEF_STEREO_COUNT>
0

> <PUBCHEM_BOND_DEF_STEREO_COUNT>
0

> <PUBCHEM_BOND_UDEF_STEREO_COUNT>
0

> <PUBCHEM_ISOTOPIC_ATOM_COUNT>
0

> <PUBCHEM_COMPONENT_COUNT>
1

> <PUBCHEM_CACTVS_TAUTO_COUNT>
4

> <PUBCHEM_CONFORMER_ID>
060AD2A700000001

> <PUBCHEM_MMFF94_ENERGY>
50.3336

> <PUBCHEM_FEATURE_SELFOVERLAP>
30.449

> <PUBCHEM_SHAPE_FINGERPRINT>
10610426 29 16370994158044538354
10906281 52 18265045839141519133
11578080 2 17416134884203596945
12363563 72 18187653449060723179
12633257 1 18336270123645211091
12707595 3 18263382321135191911
12730499 353 9583512127880171269
13083527 12 18335693992468592021
13140716 1 18196087974249876163
13681431 1 18339094700012796845
14787075 74 17967535696625294954
14863182 85 17989495138128026135
14955137 171 18342179998834449648
15163728 17 13685172209614925792
15422964 175 18267302028057728982
16945 1 18410293622597670166
1813 80 17699878162007860255
20600515 1 17679291971525615652
20626108 58 16370730335273079995
20645477 70 18410293649137587935
20723712 36 18059859505966098096
20739085 24 18131075883208813798
21421861 104 18266486281088865737
21756936 100 15625352741482149442
23419403 2 17097184294852386062
23557571 272 18121216476521750636
23558518 356 17405409015336409392
23559900 14 17897729747524344894
2748010 2 18125435302584721326
484985 159 15078423480179072194
621550 5 17198007110491657614
6669772 16 18122927557882137428
81228 2 17691130331454158877
9841814 1 18187658980851720697

> <PUBCHEM_SHAPE_MULTIPOLES>
438.11
7.92
3.26
1.94
7.11
1.5
-0.17
-1.55
-4.08
-3.47
1.49
-0.66
-0.81
0.64

> <PUBCHEM_SHAPE_SELFOVERLAP>
913.305

> <PUBCHEM_SHAPE_VOLUME>
245

> <PUBCHEM_COORDINATE_TYPE>
2
5
10

$$$$
