10965842
  -OEChem-02172602573D

 39 39  0     1  0  0  0  0  0999 V2000
    1.8176    0.5512   -0.4456 O   0  0  0  0  0  0  0  0  0  0  0  0
    1.9927   -0.4264    1.6398 O   0  0  0  0  0  0  0  0  0  0  0  0
   -2.8113    0.7665    0.8430 C   0  0  0  0  0  0  0  0  0  0  0  0
   -3.3395   -0.5213    0.1970 C   0  0  0  0  0  0  0  0  0  0  0  0
   -2.3503    1.8592   -0.1310 C   0  0  0  0  0  0  0  0  0  0  0  0
   -2.3519   -1.3446   -0.6306 C   0  0  0  0  0  0  0  0  0  0  0  0
   -0.8881    1.7982   -0.5920 C   0  0  0  0  0  0  0  0  0  0  0  0
   -1.1064   -1.7738    0.1475 C   0  0  0  0  0  0  0  0  0  0  0  0
    0.1247    2.0340    0.5377 C   0  0  0  0  0  0  0  0  0  0  0  0
   -0.1562   -2.5904   -0.7316 C   0  0  0  0  0  0  0  0  0  0  0  0
    1.5940    1.8648    0.1136 C   0  0  2  0  0  0  0  0  0  0  0  0
    1.2039   -2.8483   -0.0704 C   0  0  0  0  0  0  0  0  0  0  0  0
    2.2414   -1.7622   -0.3568 C   0  0  0  0  0  0  0  0  0  0  0  0
    2.0238    2.8811   -0.9381 C   0  0  0  0  0  0  0  0  0  0  0  0
    2.0055   -0.4881    0.4174 C   0  0  0  0  0  0  0  0  0  0  0  0
   -3.6488    1.1851    1.4179 H   0  0  0  0  0  0  0  0  0  0  0  0
   -2.0440    0.5339    1.5859 H   0  0  0  0  0  0  0  0  0  0  0  0
   -4.1971   -0.2700   -0.4400 H   0  0  0  0  0  0  0  0  0  0  0  0
   -3.7356   -1.1607    0.9966 H   0  0  0  0  0  0  0  0  0  0  0  0
   -3.0016    1.8559   -1.0136 H   0  0  0  0  0  0  0  0  0  0  0  0
   -2.5038    2.8320    0.3545 H   0  0  0  0  0  0  0  0  0  0  0  0
   -2.0680   -0.7851   -1.5281 H   0  0  0  0  0  0  0  0  0  0  0  0
   -2.8719   -2.2421   -0.9892 H   0  0  0  0  0  0  0  0  0  0  0  0
   -0.6846    0.8507   -1.0943 H   0  0  0  0  0  0  0  0  0  0  0  0
   -0.7534    2.5779   -1.3516 H   0  0  0  0  0  0  0  0  0  0  0  0
   -1.4028   -2.3723    1.0176 H   0  0  0  0  0  0  0  0  0  0  0  0
   -0.5907   -0.8952    0.5336 H   0  0  0  0  0  0  0  0  0  0  0  0
   -0.0203    3.0395    0.9514 H   0  0  0  0  0  0  0  0  0  0  0  0
   -0.0706    1.3299    1.3517 H   0  0  0  0  0  0  0  0  0  0  0  0
   -0.0136   -2.1009   -1.7023 H   0  0  0  0  0  0  0  0  0  0  0  0
   -0.6327   -3.5575   -0.9365 H   0  0  0  0  0  0  0  0  0  0  0  0
    2.2383    1.9983    0.9920 H   0  0  0  0  0  0  0  0  0  0  0  0
    1.5983   -3.7870   -0.4796 H   0  0  0  0  0  0  0  0  0  0  0  0
    1.0839   -3.0012    1.0085 H   0  0  0  0  0  0  0  0  0  0  0  0
    2.2844   -1.5492   -1.4313 H   0  0  0  0  0  0  0  0  0  0  0  0
    3.2397   -2.1186   -0.0756 H   0  0  0  0  0  0  0  0  0  0  0  0
    1.8356    3.9056   -0.6039 H   0  0  0  0  0  0  0  0  0  0  0  0
    3.0948    2.7759   -1.1446 H   0  0  0  0  0  0  0  0  0  0  0  0
    1.5120    2.7163   -1.8919 H   0  0  0  0  0  0  0  0  0  0  0  0
  1 11  1  0  0  0  0
  1 15  1  0  0  0  0
  2 15  2  0  0  0  0
  3  4  1  0  0  0  0
  3  5  1  0  0  0  0
  3 16  1  0  0  0  0
  3 17  1  0  0  0  0
  4  6  1  0  0  0  0
  4 18  1  0  0  0  0
  4 19  1  0  0  0  0
  5  7  1  0  0  0  0
  5 20  1  0  0  0  0
  5 21  1  0  0  0  0
  6  8  1  0  0  0  0
  6 22  1  0  0  0  0
  6 23  1  0  0  0  0
  7  9  1  0  0  0  0
  7 24  1  0  0  0  0
  7 25  1  0  0  0  0
  8 10  1  0  0  0  0
  8 26  1  0  0  0  0
  8 27  1  0  0  0  0
  9 11  1  0  0  0  0
  9 28  1  0  0  0  0
  9 29  1  0  0  0  0
 10 12  1  0  0  0  0
 10 30  1  0  0  0  0
 10 31  1  0  0  0  0
 11 14  1  0  0  0  0
 11 32  1  0  0  0  0
 12 13  1  0  0  0  0
 12 33  1  0  0  0  0
 12 34  1  0  0  0  0
 13 15  1  0  0  0  0
 13 35  1  0  0  0  0
 13 36  1  0  0  0  0
 14 37  1  0  0  0  0
 14 38  1  0  0  0  0
 14 39  1  0  0  0  0
M  END
> <PUBCHEM_COMPOUND_CID>
10965842

> <PUBCHEM_CONFORMER_RMSD>
0.6

> <PUBCHEM_CONFORMER_DIVERSEORDER>
4
23
53
57
59
20
52
24
58
56
69
31
36
74
49
62
41
10
17
11
19
29
45
66
12
16
51
25
50
67
8
61
46
55
3
44
34
21
15
70
47
72
26
54
14
39
43
71
65
35
33
7
37
40
64
32
48
18
30
42
63
38
68
6
22
13
2
28
60
27
9
5
1
73

> <PUBCHEM_MMFF94_PARTIAL_CHARGES>
5
1 -0.43
11 0.28
13 0.06
15 0.66
2 -0.57

> <PUBCHEM_EFFECTIVE_ROTOR_COUNT>
2.4

> <PUBCHEM_PHARMACOPHORE_FEATURES>
1
1 2 acceptor

> <PUBCHEM_HEAVY_ATOM_COUNT>
15

> <PUBCHEM_ATOM_DEF_STEREO_COUNT>
0

> <PUBCHEM_ATOM_UDEF_STEREO_COUNT>
1

> <PUBCHEM_BOND_DEF_STEREO_COUNT>
0

> <PUBCHEM_BOND_UDEF_STEREO_COUNT>
0

> <PUBCHEM_ISOTOPIC_ATOM_COUNT>
0

> <PUBCHEM_COMPONENT_COUNT>
1

> <PUBCHEM_CACTVS_TAUTO_COUNT>
1

> <PUBCHEM_CONFORMER_ID>
00A7535200000004

> <PUBCHEM_MMFF94_ENERGY>
16.2411

> <PUBCHEM_FEATURE_SELFOVERLAP>
5.074

> <PUBCHEM_SHAPE_FINGERPRINT>
12696612 119 18339646620590396191
13618510 140 18194965372957122583
1420 336 17834678188825729723
14251705 54 18265903462410491243
14251711 518 17617932977491499707
14251745 187 17115499650268229962
15279307 12 18120382217948363861
15775835 57 18195537106250571889
15881359 60 18122311697667101871
16945 1 18409728435198460983
17990270 104 18336267829805581457
19930374 2 17541910141134197192
20645477 70 18334012796509497041
21160774 45 17544195974226550998
22721475 48 17621320130445335667
2334 1 18050846920753639895
2748010 2 17979068280398809959
2803657 2 17764843068295732407
2897 32 18194682798537245461
66348 1 17979069710723172167

> <PUBCHEM_SHAPE_MULTIPOLES>
296.95
4.38
3.86
0.99
2.3
0.15
0.17
-0.26
0.33
-1.51
-0.89
-0.23
-0.09
-0.48

> <PUBCHEM_SHAPE_SELFOVERLAP>
563.761

> <PUBCHEM_SHAPE_VOLUME>
181.3

> <PUBCHEM_COORDINATE_TYPE>
2
5
10

$$$$
