1201538
  -OEChem-03052615013D

 34 36  0     1  0  0  0  0  0999 V2000
   -0.0911   -1.2539   -0.8957 N   0  0  0  0  0  0  0  0  0  0  0  0
    0.2400    0.1296   -0.5052 C   0  0  2  0  0  0  0  0  0  0  0  0
    1.7161    0.3515   -0.2310 C   0  0  0  0  0  0  0  0  0  0  0  0
    2.0715   -2.1511   -0.1263 C   0  0  0  0  0  0  0  0  0  0  0  0
    2.5804   -0.7375   -0.0155 C   0  0  0  0  0  0  0  0  0  0  0  0
    0.5502   -2.2353   -0.0190 C   0  0  0  0  0  0  0  0  0  0  0  0
   -0.6256    0.5678    0.6822 C   0  0  0  0  0  0  0  0  0  0  0  0
    2.2312    1.6559   -0.1727 C   0  0  0  0  0  0  0  0  0  0  0  0
   -2.0880    0.4035    0.3838 C   0  0  0  0  0  0  0  0  0  0  0  0
    3.9392   -0.5071    0.2407 C   0  0  0  0  0  0  0  0  0  0  0  0
    3.5829    1.8748    0.0927 C   0  0  0  0  0  0  0  0  0  0  0  0
    4.4360    0.7941    0.2994 C   0  0  0  0  0  0  0  0  0  0  0  0
   -2.7938    1.4523   -0.1937 C   0  0  0  0  0  0  0  0  0  0  0  0
   -2.7214   -0.7957    0.6884 C   0  0  0  0  0  0  0  0  0  0  0  0
   -4.1522    1.2998   -0.4709 C   0  0  0  0  0  0  0  0  0  0  0  0
   -4.0799   -0.9481    0.4112 C   0  0  0  0  0  0  0  0  0  0  0  0
   -4.7954    0.0996   -0.1684 C   0  0  0  0  0  0  0  0  0  0  0  0
   -0.0227    0.7531   -1.3714 H   0  0  0  0  0  0  0  0  0  0  0  0
    2.3952   -2.5555   -1.0939 H   0  0  0  0  0  0  0  0  0  0  0  0
    2.5167   -2.7713    0.6608 H   0  0  0  0  0  0  0  0  0  0  0  0
   -0.4314    1.6203    0.9304 H   0  0  0  0  0  0  0  0  0  0  0  0
   -0.3679    0.0180    1.5974 H   0  0  0  0  0  0  0  0  0  0  0  0
    0.2214   -3.2401   -0.3070 H   0  0  0  0  0  0  0  0  0  0  0  0
    0.2336   -2.0979    1.0210 H   0  0  0  0  0  0  0  0  0  0  0  0
    0.2330   -1.4110   -1.8508 H   0  0  0  0  0  0  0  0  0  0  0  0
    1.5796    2.5109   -0.3360 H   0  0  0  0  0  0  0  0  0  0  0  0
    4.6179   -1.3426    0.3923 H   0  0  0  0  0  0  0  0  0  0  0  0
    3.9701    2.8886    0.1355 H   0  0  0  0  0  0  0  0  0  0  0  0
    5.4894    0.9644    0.5013 H   0  0  0  0  0  0  0  0  0  0  0  0
   -2.3025    2.3907   -0.4356 H   0  0  0  0  0  0  0  0  0  0  0  0
   -2.1844   -1.6166    1.1540 H   0  0  0  0  0  0  0  0  0  0  0  0
   -4.7093    2.1155   -0.9226 H   0  0  0  0  0  0  0  0  0  0  0  0
   -4.5816   -1.8814    0.6499 H   0  0  0  0  0  0  0  0  0  0  0  0
   -5.8533   -0.0188   -0.3835 H   0  0  0  0  0  0  0  0  0  0  0  0
  1  2  1  0  0  0  0
  1  6  1  0  0  0  0
  1 25  1  0  0  0  0
  2  3  1  0  0  0  0
  2  7  1  0  0  0  0
  2 18  1  0  0  0  0
  3  5  1  0  0  0  0
  3  8  2  0  0  0  0
  4  5  1  0  0  0  0
  4  6  1  0  0  0  0
  4 19  1  0  0  0  0
  4 20  1  0  0  0  0
  5 10  2  0  0  0  0
  6 23  1  0  0  0  0
  6 24  1  0  0  0  0
  7  9  1  0  0  0  0
  7 21  1  0  0  0  0
  7 22  1  0  0  0  0
  8 11  1  0  0  0  0
  8 26  1  0  0  0  0
  9 13  2  0  0  0  0
  9 14  1  0  0  0  0
 10 12  1  0  0  0  0
 10 27  1  0  0  0  0
 11 12  2  0  0  0  0
 11 28  1  0  0  0  0
 12 29  1  0  0  0  0
 13 15  1  0  0  0  0
 13 30  1  0  0  0  0
 14 16  2  0  0  0  0
 14 31  1  0  0  0  0
 15 17  2  0  0  0  0
 15 32  1  0  0  0  0
 16 17  1  0  0  0  0
 16 33  1  0  0  0  0
 17 34  1  0  0  0  0
M  END
> <PUBCHEM_COMPOUND_CID>
1201538

> <PUBCHEM_CONFORMER_RMSD>
0.6

> <PUBCHEM_CONFORMER_DIVERSEORDER>
1
2
6
4
5
3

> <PUBCHEM_MMFF94_PARTIAL_CHARGES>
27
1 -0.9
10 -0.15
11 -0.15
12 -0.15
13 -0.15
14 -0.15
15 -0.15
16 -0.15
17 -0.15
2 0.41
25 0.36
26 0.15
27 0.15
28 0.15
29 0.15
3 -0.14
30 0.15
31 0.15
32 0.15
33 0.15
34 0.15
4 0.14
5 -0.14
6 0.27
7 0.14
8 -0.15
9 -0.14

> <PUBCHEM_EFFECTIVE_ROTOR_COUNT>
2.8

> <PUBCHEM_PHARMACOPHORE_FEATURES>
5
1 1 cation
1 1 donor
6 1 2 3 4 5 6 rings
6 3 5 8 10 11 12 rings
6 9 13 14 15 16 17 rings

> <PUBCHEM_HEAVY_ATOM_COUNT>
17

> <PUBCHEM_ATOM_DEF_STEREO_COUNT>
1

> <PUBCHEM_ATOM_UDEF_STEREO_COUNT>
0

> <PUBCHEM_BOND_DEF_STEREO_COUNT>
0

> <PUBCHEM_BOND_UDEF_STEREO_COUNT>
0

> <PUBCHEM_ISOTOPIC_ATOM_COUNT>
0

> <PUBCHEM_COMPONENT_COUNT>
1

> <PUBCHEM_CACTVS_TAUTO_COUNT>
1

> <PUBCHEM_CONFORMER_ID>
0012558200000001

> <PUBCHEM_MMFF94_ENERGY>
44.2437

> <PUBCHEM_FEATURE_SELFOVERLAP>
25.393

> <PUBCHEM_SHAPE_FINGERPRINT>
10608611 8 18335701594476615197
10646746 165 18113336379838684381
11370993 70 18335136496923559891
11471102 20 18411980243776102164
11615757 297 17846784013658161673
12011746 2 18335709312807048886
12236239 1 17560798822870019573
12403259 415 18412545439713095960
128620 24 17561083605256495149
13583140 156 17168964811938995442
14251717 144 18411981338734338690
14415576 193 18408044004659273044
14787075 74 18128816520121042459
15196674 1 18410575084668373195
15219456 202 18335703815011331565
15375358 24 18260830393106345379
15375462 6 18409450271493985453
15536298 74 18342178830154984654
17492 89 18410575042194389443
18186145 218 18200609032898244728
200 152 18202842150094776785
20279233 1 18260555510909604843
204376 136 18341897441103785742
20645477 56 18042124272295010733
20645477 70 18342739568084269207
21267235 1 18411991247081660646
21524375 3 18271810163444857638
21637258 2 15502923135831573746
21682296 61 17914905232053319982
21709351 56 18408316692148623316
221490 88 18337682935562091955
22854114 111 18412265042725255484
22854114 59 18410856572561725216
23402539 116 18113611314154956423
23402655 69 18343864407118235341
23557571 272 17603865573018976285
23559900 14 18267298725201835978
296302 2 18113621183409566721
33824 294 18409166597720853082
351380 180 18334853926603445209
3545911 37 18335704927381721357
4214541 1 18335420141022291649
474 4 18409168835224747368
474229 33 18340768255594798295
5104073 3 18335986372398955513
58051976 378 18413670205869372093
6333272 397 18411702110125653290
633830 44 17774458112834021293
69090 78 18411417349272361227
7364860 26 18270403780720076166
77779 3 18408323285086978425
81539 233 18409168809592048326
8272917 22 18270122305537383871
9709674 26 18336272275413607715
9999458 23 18260268555945040758

> <PUBCHEM_SHAPE_MULTIPOLES>
344.87
9.21
2.07
0.77
3.87
0.49
0.01
-2.39
0.46
-1.03
-0.13
0.16
0.03
0.43

> <PUBCHEM_SHAPE_SELFOVERLAP>
746.481

> <PUBCHEM_SHAPE_VOLUME>
186.2

> <PUBCHEM_COORDINATE_TYPE>
2
5
10

$$$$
