12084879
  -OEChem-03052615083D

 82 85  0     1  0  0  0  0  0999 V2000
    1.2423   -1.5151    1.9465 O   0  0  0  0  0  0  0  0  0  0  0  0
   -3.4556   -2.7150    0.9769 O   0  0  0  0  0  0  0  0  0  0  0  0
    4.9682    3.8506    1.3138 O   0  0  0  0  0  0  0  0  0  0  0  0
   -3.1660   -0.0125    1.7578 O   0  0  0  0  0  0  0  0  0  0  0  0
    5.5194   -2.0792   -1.5113 O   0  0  0  0  0  0  0  0  0  0  0  0
    6.8905    2.1374    0.2986 O   0  0  0  0  0  0  0  0  0  0  0  0
   -7.3987    2.4872    0.1963 O   0  0  0  0  0  0  0  0  0  0  0  0
   -5.0899    3.5322   -0.5481 O   0  0  0  0  0  0  0  0  0  0  0  0
   -0.1456   -1.1146   -0.0277 C   0  0  1  0  0  0  0  0  0  0  0  0
    1.1414   -1.7785    0.5284 C   0  0  1  0  0  0  0  0  0  0  0  0
   -1.2347   -1.9166    0.7309 C   0  0  2  0  0  0  0  0  0  0  0  0
    2.4797    0.3500    0.0149 C   0  0  2  0  0  0  0  0  0  0  0  0
    3.6730    0.9598   -0.8220 C   0  0  2  0  0  0  0  0  0  0  0  0
   -0.1164    0.3826    0.3230 C   0  0  0  0  0  0  0  0  0  0  0  0
    2.3885   -1.1807   -0.0871 C   0  0  0  0  0  0  0  0  0  0  0  0
    0.8130   -3.2745    0.4095 C   0  0  0  0  0  0  0  0  0  0  0  0
   -0.6956   -3.3655    0.7252 C   0  0  0  0  0  0  0  0  0  0  0  0
    1.1237    1.0652   -0.2759 C   0  0  0  0  0  0  0  0  0  0  0  0
    4.9472    0.0885   -0.6456 C   0  0  1  0  0  0  0  0  0  0  0  0
   -2.6556   -1.8131    0.1920 C   0  0  2  0  0  0  0  0  0  0  0  0
   -0.3014   -1.2891   -1.5634 C   0  0  0  0  0  0  0  0  0  0  0  0
    4.0028    2.4125   -0.3729 C   0  0  0  0  0  0  0  0  0  0  0  0
    3.3684   -1.9488   -0.5861 C   0  0  0  0  0  0  0  0  0  0  0  0
    5.5640    0.1786    0.7621 C   0  0  0  0  0  0  0  0  0  0  0  0
    3.3366    1.0195   -2.3371 C   0  0  0  0  0  0  0  0  0  0  0  0
    4.6689   -1.3644   -0.9829 C   0  0  0  0  0  0  0  0  0  0  0  0
    4.6191    2.4981    1.0271 C   0  0  1  0  0  0  0  0  0  0  0  0
   -3.2537   -0.3906    0.3813 C   0  0  1  0  0  0  0  0  0  0  0  0
    5.8672    1.6244    1.1540 C   0  0  2  0  0  0  0  0  0  0  0  0
   -2.7082   -2.3178   -1.2566 C   0  0  0  0  0  0  0  0  0  0  0  0
   -4.7098   -0.2339   -0.1014 C   0  0  0  0  0  0  0  0  0  0  0  0
   -5.3303    1.1780    0.0969 C   0  0  2  0  0  0  0  0  0  0  0  0
   -6.8830    1.1928   -0.1483 C   0  0  0  0  0  0  0  0  0  0  0  0
   -4.5647    2.2271   -0.7420 C   0  0  0  0  0  0  0  0  0  0  0  0
   -7.6261    0.2173    0.7753 C   0  0  0  0  0  0  0  0  0  0  0  0
   -7.2788    0.9079   -1.6019 C   0  0  0  0  0  0  0  0  0  0  0  0
   -1.2403   -1.6138    1.7878 H   0  0  0  0  0  0  0  0  0  0  0  0
    2.6822    0.5364    1.0777 H   0  0  0  0  0  0  0  0  0  0  0  0
   -0.9636    0.9411   -0.0653 H   0  0  0  0  0  0  0  0  0  0  0  0
   -0.1112    0.5325    1.4092 H   0  0  0  0  0  0  0  0  0  0  0  0
    0.9928   -3.6523   -0.6033 H   0  0  0  0  0  0  0  0  0  0  0  0
    1.3866   -3.8935    1.1083 H   0  0  0  0  0  0  0  0  0  0  0  0
   -0.8325   -3.7993    1.7243 H   0  0  0  0  0  0  0  0  0  0  0  0
   -1.1796   -4.0606    0.0369 H   0  0  0  0  0  0  0  0  0  0  0  0
    1.1649    2.0898    0.1122 H   0  0  0  0  0  0  0  0  0  0  0  0
    0.9576    1.1595   -1.3529 H   0  0  0  0  0  0  0  0  0  0  0  0
    5.7014    0.4305   -1.3692 H   0  0  0  0  0  0  0  0  0  0  0  0
    0.6262   -0.9714   -2.0584 H   0  0  0  0  0  0  0  0  0  0  0  0
   -0.3955   -2.3172   -1.9108 H   0  0  0  0  0  0  0  0  0  0  0  0
   -1.0337   -0.6004   -1.9884 H   0  0  0  0  0  0  0  0  0  0  0  0
    4.7012    2.8699   -1.0885 H   0  0  0  0  0  0  0  0  0  0  0  0
    3.1127    3.0511   -0.4187 H   0  0  0  0  0  0  0  0  0  0  0  0
    3.2921   -3.0284   -0.6406 H   0  0  0  0  0  0  0  0  0  0  0  0
    4.8990   -0.2732    1.5078 H   0  0  0  0  0  0  0  0  0  0  0  0
    6.4913   -0.4086    0.7779 H   0  0  0  0  0  0  0  0  0  0  0  0
    4.2276    1.2620   -2.9285 H   0  0  0  0  0  0  0  0  0  0  0  0
    2.9438    0.0694   -2.7123 H   0  0  0  0  0  0  0  0  0  0  0  0
    2.6009    1.7995   -2.5593 H   0  0  0  0  0  0  0  0  0  0  0  0
    3.8872    2.1951    1.7830 H   0  0  0  0  0  0  0  0  0  0  0  0
    2.0169   -1.9970    2.2845 H   0  0  0  0  0  0  0  0  0  0  0  0
   -2.6899    0.3141   -0.2178 H   0  0  0  0  0  0  0  0  0  0  0  0
    6.2552    1.6748    2.1774 H   0  0  0  0  0  0  0  0  0  0  0  0
   -2.1051   -3.1920   -1.4997 H   0  0  0  0  0  0  0  0  0  0  0  0
   -3.7240   -2.7170   -1.4126 H   0  0  0  0  0  0  0  0  0  0  0  0
   -2.6573   -1.5446   -2.0225 H   0  0  0  0  0  0  0  0  0  0  0  0
   -3.4538   -2.3925    1.8946 H   0  0  0  0  0  0  0  0  0  0  0  0
   -4.7773   -0.5085   -1.1597 H   0  0  0  0  0  0  0  0  0  0  0  0
   -5.3088   -0.9592    0.4576 H   0  0  0  0  0  0  0  0  0  0  0  0
   -5.1955    1.4762    1.1465 H   0  0  0  0  0  0  0  0  0  0  0  0
    4.1584    4.3840    1.2397 H   0  0  0  0  0  0  0  0  0  0  0  0
   -2.2584    0.2827    1.9338 H   0  0  0  0  0  0  0  0  0  0  0  0
    7.6736    1.5711    0.4069 H   0  0  0  0  0  0  0  0  0  0  0  0
   -3.5128    2.2673   -0.4464 H   0  0  0  0  0  0  0  0  0  0  0  0
   -4.6082    1.9871   -1.8090 H   0  0  0  0  0  0  0  0  0  0  0  0
   -7.4596   -0.8288    0.5026 H   0  0  0  0  0  0  0  0  0  0  0  0
   -8.7072    0.3999    0.7432 H   0  0  0  0  0  0  0  0  0  0  0  0
   -7.3224    0.3613    1.8185 H   0  0  0  0  0  0  0  0  0  0  0  0
   -6.8589    1.6524   -2.2859 H   0  0  0  0  0  0  0  0  0  0  0  0
   -8.3668    0.9714   -1.7239 H   0  0  0  0  0  0  0  0  0  0  0  0
   -6.9588   -0.0862   -1.9274 H   0  0  0  0  0  0  0  0  0  0  0  0
   -7.0650    3.1282   -0.4536 H   0  0  0  0  0  0  0  0  0  0  0  0
   -4.5687    4.1363   -1.1039 H   0  0  0  0  0  0  0  0  0  0  0  0
  1 10  1  0  0  0  0
  1 60  1  0  0  0  0
  2 20  1  0  0  0  0
  2 66  1  0  0  0  0
  3 27  1  0  0  0  0
  3 70  1  0  0  0  0
  4 28  1  0  0  0  0
  4 71  1  0  0  0  0
  5 26  2  0  0  0  0
  6 29  1  0  0  0  0
  6 72  1  0  0  0  0
  7 33  1  0  0  0  0
  7 81  1  0  0  0  0
  8 34  1  0  0  0  0
  8 82  1  0  0  0  0
  9 10  1  0  0  0  0
  9 11  1  0  0  0  0
  9 14  1  0  0  0  0
  9 21  1  0  0  0  0
 10 15  1  0  0  0  0
 10 16  1  0  0  0  0
 11 17  1  0  0  0  0
 11 20  1  0  0  0  0
 11 37  1  0  0  0  0
 12 13  1  0  0  0  0
 12 15  1  0  0  0  0
 12 18  1  0  0  0  0
 12 38  1  0  0  0  0
 13 19  1  0  0  0  0
 13 22  1  0  0  0  0
 13 25  1  0  0  0  0
 14 18  1  0  0  0  0
 14 39  1  0  0  0  0
 14 40  1  0  0  0  0
 15 23  2  0  0  0  0
 16 17  1  0  0  0  0
 16 41  1  0  0  0  0
 16 42  1  0  0  0  0
 17 43  1  0  0  0  0
 17 44  1  0  0  0  0
 18 45  1  0  0  0  0
 18 46  1  0  0  0  0
 19 24  1  0  0  0  0
 19 26  1  0  0  0  0
 19 47  1  0  0  0  0
 20 28  1  0  0  0  0
 20 30  1  0  0  0  0
 21 48  1  0  0  0  0
 21 49  1  0  0  0  0
 21 50  1  0  0  0  0
 22 27  1  0  0  0  0
 22 51  1  0  0  0  0
 22 52  1  0  0  0  0
 23 26  1  0  0  0  0
 23 53  1  0  0  0  0
 24 29  1  0  0  0  0
 24 54  1  0  0  0  0
 24 55  1  0  0  0  0
 25 56  1  0  0  0  0
 25 57  1  0  0  0  0
 25 58  1  0  0  0  0
 27 29  1  0  0  0  0
 27 59  1  0  0  0  0
 28 31  1  0  0  0  0
 28 61  1  0  0  0  0
 29 62  1  0  0  0  0
 30 63  1  0  0  0  0
 30 64  1  0  0  0  0
 30 65  1  0  0  0  0
 31 32  1  0  0  0  0
 31 67  1  0  0  0  0
 31 68  1  0  0  0  0
 32 33  1  0  0  0  0
 32 34  1  0  0  0  0
 32 69  1  0  0  0  0
 33 35  1  0  0  0  0
 33 36  1  0  0  0  0
 34 73  1  0  0  0  0
 34 74  1  0  0  0  0
 35 75  1  0  0  0  0
 35 76  1  0  0  0  0
 35 77  1  0  0  0  0
 36 78  1  0  0  0  0
 36 79  1  0  0  0  0
 36 80  1  0  0  0  0
M  END
> <PUBCHEM_COMPOUND_CID>
12084879

> <PUBCHEM_CONFORMER_RMSD>
1

> <PUBCHEM_CONFORMER_DIVERSEORDER>
1
3
2

> <PUBCHEM_MMFF94_PARTIAL_CHARGES>
28
1 -0.68
10 0.42
12 0.14
15 -0.28
19 0.06
2 -0.68
20 0.28
23 -0.14
26 0.49
27 0.28
28 0.28
29 0.28
3 -0.68
33 0.28
34 0.28
4 -0.68
5 -0.57
53 0.15
6 -0.68
60 0.4
66 0.4
7 -0.68
70 0.4
71 0.4
72 0.4
8 -0.68
81 0.4
82 0.4

> <PUBCHEM_EFFECTIVE_ROTOR_COUNT>
7.8

> <PUBCHEM_PHARMACOPHORE_FEATURES>
20
1 1 acceptor
1 1 donor
1 2 acceptor
1 2 donor
1 3 acceptor
1 3 donor
1 4 acceptor
1 4 donor
1 5 acceptor
1 6 acceptor
1 6 donor
1 7 acceptor
1 7 donor
1 8 acceptor
1 8 donor
3 33 35 36 hydrophobe
5 9 10 11 16 17 rings
6 12 13 15 19 23 26 rings
6 13 19 22 24 27 29 rings
6 9 10 12 14 15 18 rings

> <PUBCHEM_HEAVY_ATOM_COUNT>
36

> <PUBCHEM_ATOM_DEF_STEREO_COUNT>
11

> <PUBCHEM_ATOM_UDEF_STEREO_COUNT>
0

> <PUBCHEM_BOND_DEF_STEREO_COUNT>
0

> <PUBCHEM_BOND_UDEF_STEREO_COUNT>
0

> <PUBCHEM_ISOTOPIC_ATOM_COUNT>
0

> <PUBCHEM_COMPONENT_COUNT>
1

> <PUBCHEM_CACTVS_TAUTO_COUNT>
5

> <PUBCHEM_CONFORMER_ID>
00B8668F00000001

> <PUBCHEM_MMFF94_ENERGY>
154.8508

> <PUBCHEM_FEATURE_SELFOVERLAP>
101.674

> <PUBCHEM_SHAPE_FINGERPRINT>
10 15 18113339734403308625
10411042 1 17615687332641263266
10554248 39 16988577778824123526
10622 236 13038090727080861109
10673678 19 18342741776225155143
10835480 77 18343018925715916832
10906281 52 17896607370302490092
11007060 377 18408609163307293595
11135609 12 10375860866873228115
11135609 201 18335972143193382555
11456790 92 18115019698366790106
11578080 2 17202179980435877858
12107183 9 18187914055118397266
12422481 6 17168136819453492364
12633257 1 15357988879853798619
13782708 43 8358272439861726281
13811026 1 18412263956019323866
14394314 77 18340208489088603361
14739800 52 18261944185363166027
14790565 3 18335143102408960423
15183329 4 17489874812783527983
15238133 3 18188496895054640996
15351339 4 18270675372877300009
15840311 113 18412267216358463917
15968369 153 18408890667863556285
16112460 7 18271534113086299641
18608769 82 18338237176387200891
19053607 189 18196366146972749864
19302320 297 18187368765337903444
19611394 137 17677917771881696971
20157964 124 18202285801331892758
20511986 3 17632006555240516766
20715895 44 18411135857632557842
21033648 144 18271814544179546235
21033648 29 18114187461841602626
21279426 13 18411989056775031326
21424621 283 18336542802170170571
21859007 373 18187076222388187772
23559900 14 18272380789233298310
23569914 2 17837444766108711329
249057 3 18341900649867018558
2838139 119 18341328912467856229
335352 9 18336271150438248566
3633792 109 18130794425759878458
376196 1 18411418418846364274
4093350 32 17775287127410686269
4340502 62 18334857203563122437
44249763 50 17916574483280745424
44317340 157 18131354128491345867
50677037 204 18336255821794869565
5104073 3 18040431118107448451
6036956 94 17400919094932242924
6086070 43 16917062321966046594
6371380 46 18335708204795663838
7970288 3 9367348145632520865

> <PUBCHEM_SHAPE_MULTIPOLES>
693.91
18.54
3.9
1.47
19.54
0.41
0.29
15.97
0.49
-0.68
-0.61
-0.66
-0.01
2.12

> <PUBCHEM_SHAPE_SELFOVERLAP>
1465.329

> <PUBCHEM_SHAPE_VOLUME>
386.7

> <PUBCHEM_COORDINATE_TYPE>
2
5
10

$$$$
