12134555
  -OEChem-03052615053D

 43 47  0     1  0  0  0  0  0999 V2000
    1.3786    1.1728   -2.1318 O   0  0  0  0  0  0  0  0  0  0  0  0
    0.8600    0.6985    1.4130 N   0  0  0  0  0  0  0  0  0  0  0  0
   -0.5214    0.6403   -0.9912 N   0  0  0  0  0  0  0  0  0  0  0  0
   -4.5915    1.6830   -0.1362 N   0  0  0  0  0  0  0  0  0  0  0  0
    5.1572    1.2156    0.2872 N   0  0  0  0  0  0  0  0  0  0  0  0
   -1.2109    0.2796    0.2395 C   0  0  1  0  0  0  0  0  0  0  0  0
    1.4784    1.3831    0.2705 C   0  0  1  0  0  0  0  0  0  0  0  0
   -0.5777    0.9474    1.4556 C   0  0  0  0  0  0  0  0  0  0  0  0
   -2.6796    0.5805    0.0984 C   0  0  0  0  0  0  0  0  0  0  0  0
    2.9455    1.0323    0.2435 C   0  0  0  0  0  0  0  0  0  0  0  0
    0.7992    1.0308   -1.0519 C   0  0  0  0  0  0  0  0  0  0  0  0
   -3.7404   -0.3676    0.0834 C   0  0  0  0  0  0  0  0  0  0  0  0
    3.5027   -0.2682    0.0915 C   0  0  0  0  0  0  0  0  0  0  0  0
   -3.2340    1.8320   -0.0385 C   0  0  0  0  0  0  0  0  0  0  0  0
   -4.9291    0.3501   -0.0646 C   0  0  0  0  0  0  0  0  0  0  0  0
    3.9874    1.9231    0.3614 C   0  0  0  0  0  0  0  0  0  0  0  0
    4.8915   -0.1251    0.1222 C   0  0  0  0  0  0  0  0  0  0  0  0
   -3.8037   -1.7718    0.1820 C   0  0  0  0  0  0  0  0  0  0  0  0
    2.9571   -1.5573   -0.0695 C   0  0  0  0  0  0  0  0  0  0  0  0
   -6.1831   -0.2686   -0.1193 C   0  0  0  0  0  0  0  0  0  0  0  0
    5.7655   -1.2110   -0.0008 C   0  0  0  0  0  0  0  0  0  0  0  0
   -5.0512   -2.4043    0.1292 C   0  0  0  0  0  0  0  0  0  0  0  0
    3.8192   -2.6529   -0.1942 C   0  0  0  0  0  0  0  0  0  0  0  0
   -6.2213   -1.6622   -0.0192 C   0  0  0  0  0  0  0  0  0  0  0  0
    5.2016   -2.4801   -0.1600 C   0  0  0  0  0  0  0  0  0  0  0  0
   -1.0729   -0.8056    0.3306 H   0  0  0  0  0  0  0  0  0  0  0  0
    1.3690    2.4687    0.3992 H   0  0  0  0  0  0  0  0  0  0  0  0
   -0.7742    2.0264    1.4896 H   0  0  0  0  0  0  0  0  0  0  0  0
   -0.9964    0.5192    2.3739 H   0  0  0  0  0  0  0  0  0  0  0  0
    1.2808    1.0421    2.2767 H   0  0  0  0  0  0  0  0  0  0  0  0
   -0.9808    0.4286   -1.8725 H   0  0  0  0  0  0  0  0  0  0  0  0
   -2.7877    2.8161   -0.0767 H   0  0  0  0  0  0  0  0  0  0  0  0
    4.0033    2.9963    0.4912 H   0  0  0  0  0  0  0  0  0  0  0  0
   -5.2509    2.4410   -0.2452 H   0  0  0  0  0  0  0  0  0  0  0  0
    6.0823    1.6185    0.3449 H   0  0  0  0  0  0  0  0  0  0  0  0
   -2.9033   -2.3681    0.2979 H   0  0  0  0  0  0  0  0  0  0  0  0
    1.8828   -1.7141   -0.1002 H   0  0  0  0  0  0  0  0  0  0  0  0
   -7.0946    0.3082   -0.2349 H   0  0  0  0  0  0  0  0  0  0  0  0
    6.8418   -1.0775    0.0257 H   0  0  0  0  0  0  0  0  0  0  0  0
   -5.1063   -3.4870    0.2049 H   0  0  0  0  0  0  0  0  0  0  0  0
    3.4041   -3.6494   -0.3193 H   0  0  0  0  0  0  0  0  0  0  0  0
   -7.1796   -2.1740   -0.0579 H   0  0  0  0  0  0  0  0  0  0  0  0
    5.8526   -3.3450   -0.2587 H   0  0  0  0  0  0  0  0  0  0  0  0
  1 11  2  0  0  0  0
  2  7  1  0  0  0  0
  2  8  1  0  0  0  0
  2 30  1  0  0  0  0
  3  6  1  0  0  0  0
  3 11  1  0  0  0  0
  3 31  1  0  0  0  0
  4 14  1  0  0  0  0
  4 15  1  0  0  0  0
  4 34  1  0  0  0  0
  5 16  1  0  0  0  0
  5 17  1  0  0  0  0
  5 35  1  0  0  0  0
  6  8  1  0  0  0  0
  6  9  1  0  0  0  0
  6 26  1  0  0  0  0
  7 10  1  0  0  0  0
  7 11  1  0  0  0  0
  7 27  1  0  0  0  0
  8 28  1  0  0  0  0
  8 29  1  0  0  0  0
  9 12  1  0  0  0  0
  9 14  2  0  0  0  0
 10 13  1  0  0  0  0
 10 16  2  0  0  0  0
 12 15  1  0  0  0  0
 12 18  2  0  0  0  0
 13 17  1  0  0  0  0
 13 19  2  0  0  0  0
 14 32  1  0  0  0  0
 15 20  2  0  0  0  0
 16 33  1  0  0  0  0
 17 21  2  0  0  0  0
 18 22  1  0  0  0  0
 18 36  1  0  0  0  0
 19 23  1  0  0  0  0
 19 37  1  0  0  0  0
 20 24  1  0  0  0  0
 20 38  1  0  0  0  0
 21 25  1  0  0  0  0
 21 39  1  0  0  0  0
 22 24  2  0  0  0  0
 22 40  1  0  0  0  0
 23 25  2  0  0  0  0
 23 41  1  0  0  0  0
 24 42  1  0  0  0  0
 25 43  1  0  0  0  0
M  END
> <PUBCHEM_COMPOUND_CID>
12134555

> <PUBCHEM_CONFORMER_RMSD>
0.6

> <PUBCHEM_CONFORMER_DIVERSEORDER>
1
150
79
156
45
57
117
160
146
67
22
142
115
82
3
121
101
56
136
147
41
68
107
2
127
130
25
81
133
129
75
119
24
152
102
108
90
118
30
74
125
36
52
114
15
83
138
32
47
151
135
143
123
155
4
63
105
137
77
65
46
140
80
139
78
144
9
126
14
61
92
62
124
27
87
6
157
29
59
113
69
20
70
153
109
17
154
43
18
132
86
35
162
44
42
122
104
51
37
106
116
111
76
95
7
16
64
85
28
54
23
72
158
26
112
31
100
49
19
89
10
91
60
33
141
149
38
8
88
148
66
145
97
103
50
39
120
96
58
84
34
110
159
128
21
94
71
11
131
13
73
48
53
134
40
161
93
55
99
12
5
98

> <PUBCHEM_MMFF94_PARTIAL_CHARGES>
37
1 -0.57
10 -0.18
11 0.57
14 -0.3
15 -0.15
16 -0.3
17 -0.15
18 -0.15
19 -0.15
2 -0.9
20 -0.15
21 -0.15
22 -0.15
23 -0.15
24 -0.15
25 -0.15
3 -0.73
30 0.36
31 0.37
32 0.15
33 0.15
34 0.27
35 0.27
36 0.15
37 0.15
38 0.15
39 0.15
4 0.03
40 0.15
41 0.15
42 0.15
43 0.15
5 0.03
6 0.48
7 0.51
8 0.27
9 -0.18

> <PUBCHEM_EFFECTIVE_ROTOR_COUNT>
3

> <PUBCHEM_PHARMACOPHORE_FEATURES>
13
1 1 acceptor
1 2 cation
1 2 donor
1 3 donor
1 4 cation
1 4 donor
1 5 cation
1 5 donor
5 4 9 12 14 15 rings
5 5 10 13 16 17 rings
6 12 15 18 20 22 24 rings
6 13 17 19 21 23 25 rings
6 2 3 6 7 8 11 rings

> <PUBCHEM_HEAVY_ATOM_COUNT>
25

> <PUBCHEM_ATOM_DEF_STEREO_COUNT>
0

> <PUBCHEM_ATOM_UDEF_STEREO_COUNT>
2

> <PUBCHEM_BOND_DEF_STEREO_COUNT>
0

> <PUBCHEM_BOND_UDEF_STEREO_COUNT>
0

> <PUBCHEM_ISOTOPIC_ATOM_COUNT>
0

> <PUBCHEM_COMPONENT_COUNT>
1

> <PUBCHEM_CACTVS_TAUTO_COUNT>
2

> <PUBCHEM_CONFORMER_ID>
00B9289B00000001

> <PUBCHEM_MMFF94_ENERGY>
47.6228

> <PUBCHEM_FEATURE_SELFOVERLAP>
66.161

> <PUBCHEM_SHAPE_FINGERPRINT>
10595046 47 18411420643570630833
10835480 77 18341040874328235473
11135609 12 17968955217956352363
11135609 99 18343581829184717142
11524674 6 16845574245108517407
117089 54 17972611158623254251
11796584 16 18342740667711811311
11991303 11 14057011537370489137
12107183 9 17837778824290022473
12236239 1 18343584031705958473
12467345 10 18411980269134819551
12516196 113 18131066039212096344
12596602 18 17632861940478639794
12788726 201 17060069137279468760
13073987 5 18202002127116116945
13167823 11 18412260640436472595
13402501 40 18410575084801002059
13533116 47 18342739632798630072
13583140 156 18059563724284694405
13685833 64 18408325493011470059
14251751 18 18412266146843372767
14341114 176 18411984667539851417
14461889 52 18339634672428943560
15183329 4 18335419045631434795
15196674 1 18411418405818602194
15788980 27 18333735723525851897
17844677 252 18412268328407379249
17857418 61 18411981373342211327
1813 80 17240483598024332004
18222031 100 17458343048313352420
19958102 18 18187638107696290623
20028762 73 18272087154882880662
20567600 247 18272083920349883459
20645477 70 18409446964922808714
21033650 10 16806166532096870620
21197605 99 18341333413325492294
21267235 1 18130511843177516486
21623969 137 17846500326715524742
22224240 67 18336540625624168816
22393880 68 18115018611101571787
23522609 53 18122940635272244872
23559900 14 18339353171793555585
23569943 247 17533208665962472555
239999 70 18130512994112486670
25122255 55 18341059553151236935
25222932 49 17845367928370124263
29717793 49 17894910754524267565
3004659 81 18335700525166843802
33382 64 18342178881530990802
338550 245 18335704991447905319
3633792 109 18335410233255140861
404807 14 17620484506088758035
4073 2 18260270784389677786
4214541 1 18411136909799604225
4340502 62 18200867483283282160
439807 62 18411702097610536339
46194498 28 17676486198002657780
463206 1 18269556203284416555
465052 167 17989209235540790412
5104073 3 18059857237922556025
5718773 13 18116989993345247906
59682541 35 18129929119569484338
59755656 215 18114456791278560463
6437827 68 18413107277486434163
67856867 119 18116718611050910013
7495541 125 17845933038929556529
7970288 3 17906451383674504335
960060 61 17676498224401644438
9709674 26 18261680366796724291
9971528 1 17967534583975986572

> <PUBCHEM_SHAPE_MULTIPOLES>
488.69
15.76
2.56
0.99
6.78
1.32
-0.17
7.72
0.12
-0.95
-0.03
-0.24
-0.37
0.4

> <PUBCHEM_SHAPE_SELFOVERLAP>
1103.536

> <PUBCHEM_SHAPE_VOLUME>
256.7

> <PUBCHEM_COORDINATE_TYPE>
2
5
10

$$$$
