12217608
  -OEChem-03052615043D

 31 35  0     1  0  0  0  0  0999 V2000
    1.1707    0.7963    0.7043 C   0  0  1  0  0  0  0  0  0  0  0  0
    1.1708   -0.7963    0.7045 C   0  0  2  0  0  0  0  0  0  0  0  0
    2.2280    1.1233   -0.3801 C   0  0  2  0  0  0  0  0  0  0  0  0
    2.2283   -1.1234   -0.3795 C   0  0  1  0  0  0  0  0  0  0  0  0
    2.0261   -0.0004   -1.4071 C   0  0  0  0  0  0  0  0  0  0  0  0
   -0.2526    1.1345    0.3607 C   0  0  0  0  0  0  0  0  0  0  0  0
   -0.2526   -1.1344    0.3607 C   0  0  0  0  0  0  0  0  0  0  0  0
    3.5663    0.6716    0.1644 C   0  0  0  0  0  0  0  0  0  0  0  0
    3.5666   -0.6712    0.1646 C   0  0  0  0  0  0  0  0  0  0  0  0
   -1.0106    0.0000    0.1934 C   0  0  0  0  0  0  0  0  0  0  0  0
   -2.3688    0.0000   -0.1314 C   0  0  0  0  0  0  0  0  0  0  0  0
   -0.8481    2.3752    0.2113 C   0  0  0  0  0  0  0  0  0  0  0  0
   -0.8480   -2.3753    0.2112 C   0  0  0  0  0  0  0  0  0  0  0  0
   -2.9743    1.2617   -0.2798 C   0  0  0  0  0  0  0  0  0  0  0  0
   -2.9743   -1.2617   -0.2797 C   0  0  0  0  0  0  0  0  0  0  0  0
   -2.2137    2.4345   -0.1087 C   0  0  0  0  0  0  0  0  0  0  0  0
   -2.2137   -2.4345   -0.1088 C   0  0  0  0  0  0  0  0  0  0  0  0
    1.4327    1.1920    1.6932 H   0  0  0  0  0  0  0  0  0  0  0  0
    1.4326   -1.1917    1.6935 H   0  0  0  0  0  0  0  0  0  0  0  0
    2.2135    2.1317   -0.7956 H   0  0  0  0  0  0  0  0  0  0  0  0
    2.2141   -2.1320   -0.7946 H   0  0  0  0  0  0  0  0  0  0  0  0
    1.0393   -0.0007   -1.8799 H   0  0  0  0  0  0  0  0  0  0  0  0
    2.7838   -0.0005   -2.2024 H   0  0  0  0  0  0  0  0  0  0  0  0
    4.3499    1.3121    0.5364 H   0  0  0  0  0  0  0  0  0  0  0  0
    4.3504   -1.3112    0.5367 H   0  0  0  0  0  0  0  0  0  0  0  0
   -0.2766    3.2886    0.3396 H   0  0  0  0  0  0  0  0  0  0  0  0
   -0.2766   -3.2887    0.3395 H   0  0  0  0  0  0  0  0  0  0  0  0
   -4.0289    1.3412   -0.5309 H   0  0  0  0  0  0  0  0  0  0  0  0
   -4.0288   -1.3412   -0.5309 H   0  0  0  0  0  0  0  0  0  0  0  0
   -2.6932    3.4028   -0.2281 H   0  0  0  0  0  0  0  0  0  0  0  0
   -2.6933   -3.4028   -0.2282 H   0  0  0  0  0  0  0  0  0  0  0  0
  1  2  1  0  0  0  0
  1  3  1  0  0  0  0
  1  6  1  0  0  0  0
  1 18  1  0  0  0  0
  2  4  1  0  0  0  0
  2  7  1  0  0  0  0
  2 19  1  0  0  0  0
  3  5  1  0  0  0  0
  3  8  1  0  0  0  0
  3 20  1  0  0  0  0
  4  5  1  0  0  0  0
  4  9  1  0  0  0  0
  4 21  1  0  0  0  0
  5 22  1  0  0  0  0
  5 23  1  0  0  0  0
  6 10  1  0  0  0  0
  6 12  2  0  0  0  0
  7 10  1  0  0  0  0
  7 13  2  0  0  0  0
  8  9  2  0  0  0  0
  8 24  1  0  0  0  0
  9 25  1  0  0  0  0
 10 11  2  0  0  0  0
 11 14  1  0  0  0  0
 11 15  1  0  0  0  0
 12 16  1  0  0  0  0
 12 26  1  0  0  0  0
 13 17  1  0  0  0  0
 13 27  1  0  0  0  0
 14 16  2  0  0  0  0
 14 28  1  0  0  0  0
 15 17  2  0  0  0  0
 15 29  1  0  0  0  0
 16 30  1  0  0  0  0
 17 31  1  0  0  0  0
M  END
> <PUBCHEM_COMPOUND_CID>
12217608

> <PUBCHEM_CONFORMER_RMSD>
0.4

> <PUBCHEM_CONFORMER_DIVERSEORDER>
1
3
2

> <PUBCHEM_MMFF94_PARTIAL_CHARGES>
22
1 0.14
12 -0.15
13 -0.15
14 -0.15
15 -0.15
16 -0.15
17 -0.15
2 0.14
24 0.15
25 0.15
26 0.15
27 0.15
28 0.15
29 0.15
3 0.14
30 0.15
31 0.15
4 0.14
6 -0.14
7 -0.14
8 -0.29
9 -0.29

> <PUBCHEM_EFFECTIVE_ROTOR_COUNT>
0.2

> <PUBCHEM_PHARMACOPHORE_FEATURES>
4
5 1 2 6 7 10 rings
6 6 10 11 12 14 16 rings
6 7 10 11 13 15 17 rings
7 1 2 3 4 5 8 9 rings

> <PUBCHEM_HEAVY_ATOM_COUNT>
17

> <PUBCHEM_ATOM_DEF_STEREO_COUNT>
0

> <PUBCHEM_ATOM_UDEF_STEREO_COUNT>
4

> <PUBCHEM_BOND_DEF_STEREO_COUNT>
0

> <PUBCHEM_BOND_UDEF_STEREO_COUNT>
0

> <PUBCHEM_ISOTOPIC_ATOM_COUNT>
0

> <PUBCHEM_COMPONENT_COUNT>
1

> <PUBCHEM_CACTVS_TAUTO_COUNT>
1

> <PUBCHEM_CONFORMER_ID>
00BA6D0800000001

> <PUBCHEM_MMFF94_ENERGY>
77.3835

> <PUBCHEM_FEATURE_SELFOVERLAP>
20.588

> <PUBCHEM_SHAPE_FINGERPRINT>
10608611 8 18341608248234615008
10863032 1 18412542076953572068
10967382 1 18266457598901091033
11578080 2 17027920564430592900
11640471 11 17604450564427913332
12173636 292 18338231549204699997
12553582 1 18051136087906462655
12730499 353 17758394077008792237
13140716 1 18266743669455840129
13538477 17 18260539005044428746
14115302 16 18334017189559148388
14614273 12 18187921712707403965
14790565 3 16389040825208311185
15309172 13 18195256520458965257
15442244 35 18263639572501588914
15775835 57 18115311059730344540
16752209 62 18337378379863239963
16945 1 18410582781450188690
17134986 127 17975412408647908541
18186145 218 18198630929970644044
19591789 44 18267873787632529243
19868273 293 18334584498925422012
19868273 325 18337672035214117343
20510252 161 18342458136194225753
20905425 154 17907865346166886724
21197605 99 13432983069056659858
21267235 1 18409456915829738154
21501502 16 18410858797650274528
21524375 3 17972040249455998993
22721475 48 18198067073789477899
22802520 49 18272661125019867007
2334 1 18122626325306433747
23402539 116 18340756113558345678
23419403 2 17201899621902705723
23557571 272 18272378606682478092
23559900 14 18272084934695180410
238 59 16671303580018998709
2748010 2 17185028913154748025
3060560 45 17903636276633061805
335352 9 18122342385129434118
353137 74 18335416863661200769
69090 78 18339921519924508949
6992083 37 18041283153903848476
7364860 26 17474949827046685867
77492 1 17676201368904180824
81228 2 18337964479394942553
8809292 202 18412547600155070002
90525 40 18264772069145563839
9709674 26 18343304747531951006
9981440 41 17609502984036312568

> <PUBCHEM_SHAPE_MULTIPOLES>
349.85
5.2
2.59
0.85
2.03
0
0.12
0
0.57
-2.09
-0.07
0.31
0
0

> <PUBCHEM_SHAPE_SELFOVERLAP>
826.312

> <PUBCHEM_SHAPE_VOLUME>
169.5

> <PUBCHEM_COORDINATE_TYPE>
2
5
10

$$$$
