12235227
  -OEChem-03052615073D

 55 55  0     1  0  0  0  0  0999 V2000
    1.9072   -3.9378   -0.5162 O   0  0  0  0  0  0  0  0  0  0  0  0
   -8.3781    3.0801   -0.4831 O   0  0  0  0  0  0  0  0  0  0  0  0
   -7.7540    2.0429    1.4372 O   0  0  0  0  0  0  0  0  0  0  0  0
    1.7647   -3.2529    0.7348 C   0  0  2  0  0  0  0  0  0  0  0  0
    0.5810   -3.8347    0.0180 C   0  0  1  0  0  0  0  0  0  0  0  0
    2.0521   -1.8014    0.6774 C   0  0  0  0  0  0  0  0  0  0  0  0
   -0.3251   -2.9483   -0.7807 C   0  0  0  0  0  0  0  0  0  0  0  0
    3.5364   -1.4675    0.4597 C   0  0  0  0  0  0  0  0  0  0  0  0
   -1.3983   -2.2603    0.0663 C   0  0  0  0  0  0  0  0  0  0  0  0
    3.8032    0.0383    0.3812 C   0  0  0  0  0  0  0  0  0  0  0  0
   -2.3646   -1.4129   -0.7668 C   0  0  0  0  0  0  0  0  0  0  0  0
    5.2858    0.3261    0.1338 C   0  0  0  0  0  0  0  0  0  0  0  0
   -3.4391   -0.7143    0.0737 C   0  0  0  0  0  0  0  0  0  0  0  0
    5.5608    1.8309    0.0882 C   0  0  0  0  0  0  0  0  0  0  0  0
   -4.4690    0.1060   -0.7101 C   0  0  0  0  0  0  0  0  0  0  0  0
    7.0491    2.1157   -0.1269 C   0  0  0  0  0  0  0  0  0  0  0  0
   -5.5516    0.7301    0.1767 C   0  0  0  0  0  0  0  0  0  0  0  0
    7.3830    3.6088   -0.1501 C   0  0  0  0  0  0  0  0  0  0  0  0
   -6.5136    1.6167   -0.6163 C   0  0  0  0  0  0  0  0  0  0  0  0
    8.8646    3.8964   -0.3372 C   0  0  0  0  0  0  0  0  0  0  0  0
   -7.5945    2.2380    0.2404 C   0  0  0  0  0  0  0  0  0  0  0  0
    2.1396   -3.7422    1.6229 H   0  0  0  0  0  0  0  0  0  0  0  0
    0.1106   -4.7251    0.4095 H   0  0  0  0  0  0  0  0  0  0  0  0
    1.4877   -1.2790   -0.0980 H   0  0  0  0  0  0  0  0  0  0  0  0
    1.7293   -1.3555    1.6267 H   0  0  0  0  0  0  0  0  0  0  0  0
    0.2209   -2.2158   -1.3846 H   0  0  0  0  0  0  0  0  0  0  0  0
   -0.8311   -3.5906   -1.5137 H   0  0  0  0  0  0  0  0  0  0  0  0
    3.8798   -1.9452   -0.4664 H   0  0  0  0  0  0  0  0  0  0  0  0
    4.1271   -1.9057    1.2740 H   0  0  0  0  0  0  0  0  0  0  0  0
   -1.9657   -3.0204    0.6180 H   0  0  0  0  0  0  0  0  0  0  0  0
   -0.9192   -1.6255    0.8212 H   0  0  0  0  0  0  0  0  0  0  0  0
    3.4839    0.5139    1.3164 H   0  0  0  0  0  0  0  0  0  0  0  0
    3.2048    0.4767   -0.4265 H   0  0  0  0  0  0  0  0  0  0  0  0
   -2.8537   -2.0524   -1.5117 H   0  0  0  0  0  0  0  0  0  0  0  0
   -1.7978   -0.6555   -1.3219 H   0  0  0  0  0  0  0  0  0  0  0  0
    5.8850   -0.1319    0.9303 H   0  0  0  0  0  0  0  0  0  0  0  0
    5.5980   -0.1342   -0.8114 H   0  0  0  0  0  0  0  0  0  0  0  0
   -3.9729   -1.4752    0.6574 H   0  0  0  0  0  0  0  0  0  0  0  0
   -2.9453   -0.0577    0.8011 H   0  0  0  0  0  0  0  0  0  0  0  0
    4.9786    2.2895   -0.7201 H   0  0  0  0  0  0  0  0  0  0  0  0
    5.2329    2.2939    1.0268 H   0  0  0  0  0  0  0  0  0  0  0  0
   -3.9453    0.8988   -1.2584 H   0  0  0  0  0  0  0  0  0  0  0  0
   -4.9455   -0.5367   -1.4605 H   0  0  0  0  0  0  0  0  0  0  0  0
    7.3726    1.6607   -1.0713 H   0  0  0  0  0  0  0  0  0  0  0  0
    7.6279    1.6338    0.6710 H   0  0  0  0  0  0  0  0  0  0  0  0
   -6.1137   -0.0656    0.6811 H   0  0  0  0  0  0  0  0  0  0  0  0
   -5.0782    1.3261    0.9669 H   0  0  0  0  0  0  0  0  0  0  0  0
    7.0501    4.0698    0.7875 H   0  0  0  0  0  0  0  0  0  0  0  0
    6.8226    4.0932   -0.9586 H   0  0  0  0  0  0  0  0  0  0  0  0
   -5.9516    2.4288   -1.0914 H   0  0  0  0  0  0  0  0  0  0  0  0
   -7.0033    1.0227   -1.3960 H   0  0  0  0  0  0  0  0  0  0  0  0
    9.0446    4.9759   -0.3469 H   0  0  0  0  0  0  0  0  0  0  0  0
    9.4527    3.4596    0.4761 H   0  0  0  0  0  0  0  0  0  0  0  0
    9.2258    3.4816   -1.2836 H   0  0  0  0  0  0  0  0  0  0  0  0
   -9.0752    3.4949    0.0685 H   0  0  0  0  0  0  0  0  0  0  0  0
  1  4  1  0  0  0  0
  1  5  1  0  0  0  0
  2 21  1  0  0  0  0
  2 55  1  0  0  0  0
  3 21  2  0  0  0  0
  4  5  1  0  0  0  0
  4  6  1  0  0  0  0
  4 22  1  0  0  0  0
  5  7  1  0  0  0  0
  5 23  1  0  0  0  0
  6  8  1  0  0  0  0
  6 24  1  0  0  0  0
  6 25  1  0  0  0  0
  7  9  1  0  0  0  0
  7 26  1  0  0  0  0
  7 27  1  0  0  0  0
  8 10  1  0  0  0  0
  8 28  1  0  0  0  0
  8 29  1  0  0  0  0
  9 11  1  0  0  0  0
  9 30  1  0  0  0  0
  9 31  1  0  0  0  0
 10 12  1  0  0  0  0
 10 32  1  0  0  0  0
 10 33  1  0  0  0  0
 11 13  1  0  0  0  0
 11 34  1  0  0  0  0
 11 35  1  0  0  0  0
 12 14  1  0  0  0  0
 12 36  1  0  0  0  0
 12 37  1  0  0  0  0
 13 15  1  0  0  0  0
 13 38  1  0  0  0  0
 13 39  1  0  0  0  0
 14 16  1  0  0  0  0
 14 40  1  0  0  0  0
 14 41  1  0  0  0  0
 15 17  1  0  0  0  0
 15 42  1  0  0  0  0
 15 43  1  0  0  0  0
 16 18  1  0  0  0  0
 16 44  1  0  0  0  0
 16 45  1  0  0  0  0
 17 19  1  0  0  0  0
 17 46  1  0  0  0  0
 17 47  1  0  0  0  0
 18 20  1  0  0  0  0
 18 48  1  0  0  0  0
 18 49  1  0  0  0  0
 19 21  1  0  0  0  0
 19 50  1  0  0  0  0
 19 51  1  0  0  0  0
 20 52  1  0  0  0  0
 20 53  1  0  0  0  0
 20 54  1  0  0  0  0
M  END
> <PUBCHEM_COMPOUND_CID>
12235227

> <PUBCHEM_CONFORMER_RMSD>
1.4

> <PUBCHEM_CONFORMER_DIVERSEORDER>
1
61
35
49
63
71
9
73
53
51
46
17
5
70
58
7
3
47
44
52
69
72
39
27
64
45
50
2
23
65
25
28
22
62
15
60
42
67
34
43
33
26
37
19
40
31
56
18
38
66
59
4
55
10
8
24
6
11
48
12
75
32
21
30
16
13
36
54
20
74
29
68
14
57
41

> <PUBCHEM_MMFF94_PARTIAL_CHARGES>
12
1 -0.3
19 0.06
2 -0.65
21 0.66
22 0.1
23 0.1
3 -0.57
4 -0.05
5 -0.05
55 0.5
6 0.09
7 0.09

> <PUBCHEM_EFFECTIVE_ROTOR_COUNT>
15.6

> <PUBCHEM_PHARMACOPHORE_FEATURES>
5
1 1 acceptor
1 2 acceptor
1 20 hydrophobe
1 3 acceptor
3 2 3 21 anion

> <PUBCHEM_HEAVY_ATOM_COUNT>
21

> <PUBCHEM_ATOM_DEF_STEREO_COUNT>
2

> <PUBCHEM_ATOM_UDEF_STEREO_COUNT>
0

> <PUBCHEM_BOND_DEF_STEREO_COUNT>
0

> <PUBCHEM_BOND_UDEF_STEREO_COUNT>
0

> <PUBCHEM_ISOTOPIC_ATOM_COUNT>
0

> <PUBCHEM_COMPONENT_COUNT>
1

> <PUBCHEM_CACTVS_TAUTO_COUNT>
1

> <PUBCHEM_CONFORMER_ID>
00BAB1DB00000001

> <PUBCHEM_MMFF94_ENERGY>
8.7131

> <PUBCHEM_FEATURE_SELFOVERLAP>
25.43

> <PUBCHEM_SHAPE_FINGERPRINT>
10066227 49 9222644706858329065
10693767 8 9294989259875687701
10917259 69 18338234977649229716
13944108 23 18270398278756239384
14026016 13 18413111684228141593
14251764 75 18410008849276187886
14931854 50 17775571944193908056
15152005 290 18410854408367700030
15198563 99 17554313001553104927
155225 6 18410011039614576268
15685185 35 18340207491859105353
15803439 3 16773519975159116158
1768 23 17096655495165098132
20691028 202 18338512075310220388
21298829 104 18409448102477797221
23522609 53 17559682725233841297
23523787 8 16272207509624368142
23523788 1 12974148663481517592
270888 7 18410290337275067374
3014965 18 8934415430006975803
393628 194 18264486354968223660
397830 11 18262529096508232211
5718773 13 9367350331654329576
57634706 229 18188776179487715562
59682541 52 16773520967106669878
6327066 14 18410854404088680350
636775 72 17978787145711680376
7970288 3 9367354734170082724

> <PUBCHEM_SHAPE_MULTIPOLES>
414.56
27.51
6.15
0.88
5.7
1.33
0.07
-53.99
0.27
-4.87
-0.35
0.76
0.04
-1.7

> <PUBCHEM_SHAPE_SELFOVERLAP>
773.677

> <PUBCHEM_SHAPE_VOLUME>
259.6

> <PUBCHEM_COORDINATE_TYPE>
2
5
10

$$$$
