12303577
  -OEChem-03052615053D

 40 43  0     0  0  0  0  0  0999 V2000
   -3.5000   -0.8774    1.1076 S   0  0  0  0  0  0  0  0  0  0  0  0
    1.6673    0.8251    1.2685 S   0  0  0  0  0  0  0  0  0  0  0  0
   -3.4760   -0.3063    2.4478 O   0  0  0  0  0  0  0  0  0  0  0  0
   -4.1207   -2.1760    0.8859 O   0  0  0  0  0  0  0  0  0  0  0  0
    6.6792    1.4661    0.4612 O   0  0  0  0  0  0  0  0  0  0  0  0
    2.0740   -1.3401   -0.9481 N   0  0  0  0  0  0  0  0  0  0  0  0
   -1.8638   -1.0065    0.5120 C   0  0  0  0  0  0  0  0  0  0  0  0
    0.7713   -1.2057   -0.4429 C   0  0  0  0  0  0  0  0  0  0  0  0
    0.4530   -0.2717    0.5555 C   0  0  0  0  0  0  0  0  0  0  0  0
   -0.8660   -0.1794    1.0264 C   0  0  0  0  0  0  0  0  0  0  0  0
    3.2155   -0.6154   -0.5711 C   0  0  0  0  0  0  0  0  0  0  0  0
    3.1705    0.3849    0.4128 C   0  0  0  0  0  0  0  0  0  0  0  0
   -1.5543   -1.9331   -0.4769 C   0  0  0  0  0  0  0  0  0  0  0  0
   -0.2464   -2.0316   -0.9504 C   0  0  0  0  0  0  0  0  0  0  0  0
   -4.3662    0.3114    0.1180 C   0  0  0  0  0  0  0  0  0  0  0  0
    4.4417   -0.8989   -1.1966 C   0  0  0  0  0  0  0  0  0  0  0  0
    4.3419    1.0792    0.7527 C   0  0  0  0  0  0  0  0  0  0  0  0
    5.5508    0.7850    0.1226 C   0  0  0  0  0  0  0  0  0  0  0  0
    5.6009   -0.2041   -0.8527 C   0  0  0  0  0  0  0  0  0  0  0  0
   -5.0378   -0.1174   -1.0108 C   0  0  0  0  0  0  0  0  0  0  0  0
   -4.3498    1.6398    0.4980 C   0  0  0  0  0  0  0  0  0  0  0  0
   -5.7190    0.8181   -1.7897 C   0  0  0  0  0  0  0  0  0  0  0  0
   -5.0310    2.5752   -0.2809 C   0  0  0  0  0  0  0  0  0  0  0  0
   -5.7156    2.1642   -1.4248 C   0  0  0  0  0  0  0  0  0  0  0  0
    7.8803    1.1146   -0.2244 C   0  0  0  0  0  0  0  0  0  0  0  0
   -1.1122    0.5499    1.7956 H   0  0  0  0  0  0  0  0  0  0  0  0
    2.2058   -2.0418   -1.6676 H   0  0  0  0  0  0  0  0  0  0  0  0
   -2.3128   -2.5842   -0.9017 H   0  0  0  0  0  0  0  0  0  0  0  0
   -0.0228   -2.7614   -1.7258 H   0  0  0  0  0  0  0  0  0  0  0  0
    4.4990   -1.6703   -1.9619 H   0  0  0  0  0  0  0  0  0  0  0  0
    4.3218    1.8573    1.5137 H   0  0  0  0  0  0  0  0  0  0  0  0
    6.5034   -0.4860   -1.3841 H   0  0  0  0  0  0  0  0  0  0  0  0
   -5.0454   -1.1595   -1.3142 H   0  0  0  0  0  0  0  0  0  0  0  0
   -3.8153    1.9820    1.3785 H   0  0  0  0  0  0  0  0  0  0  0  0
   -6.2504    0.4986   -2.6814 H   0  0  0  0  0  0  0  0  0  0  0  0
   -5.0266    3.6239    0.0016 H   0  0  0  0  0  0  0  0  0  0  0  0
   -6.2451    2.8927   -2.0317 H   0  0  0  0  0  0  0  0  0  0  0  0
    7.8059    1.3204   -1.2976 H   0  0  0  0  0  0  0  0  0  0  0  0
    8.1722    0.0790   -0.0196 H   0  0  0  0  0  0  0  0  0  0  0  0
    8.6764    1.7549    0.1694 H   0  0  0  0  0  0  0  0  0  0  0  0
  1  3  2  0  0  0  0
  1  4  2  0  0  0  0
  1  7  1  0  0  0  0
  1 15  1  0  0  0  0
  2  9  1  0  0  0  0
  2 12  1  0  0  0  0
  5 18  1  0  0  0  0
  5 25  1  0  0  0  0
  6  8  1  0  0  0  0
  6 11  1  0  0  0  0
  6 27  1  0  0  0  0
  7 10  2  0  0  0  0
  7 13  1  0  0  0  0
  8  9  2  0  0  0  0
  8 14  1  0  0  0  0
  9 10  1  0  0  0  0
 10 26  1  0  0  0  0
 11 12  2  0  0  0  0
 11 16  1  0  0  0  0
 12 17  1  0  0  0  0
 13 14  2  0  0  0  0
 13 28  1  0  0  0  0
 14 29  1  0  0  0  0
 15 20  2  0  0  0  0
 15 21  1  0  0  0  0
 16 19  2  0  0  0  0
 16 30  1  0  0  0  0
 17 18  2  0  0  0  0
 17 31  1  0  0  0  0
 18 19  1  0  0  0  0
 19 32  1  0  0  0  0
 20 22  1  0  0  0  0
 20 33  1  0  0  0  0
 21 23  2  0  0  0  0
 21 34  1  0  0  0  0
 22 24  2  0  0  0  0
 22 35  1  0  0  0  0
 23 24  1  0  0  0  0
 23 36  1  0  0  0  0
 24 37  1  0  0  0  0
 25 38  1  0  0  0  0
 25 39  1  0  0  0  0
 25 40  1  0  0  0  0
M  END
> <PUBCHEM_COMPOUND_CID>
12303577

> <PUBCHEM_CONFORMER_RMSD>
0.6

> <PUBCHEM_CONFORMER_DIVERSEORDER>
1
2

> <PUBCHEM_MMFF94_PARTIAL_CHARGES>
37
1 1.32
10 -0.15
11 0.1
12 0.1
13 -0.15
14 -0.15
15 -0.01
16 -0.15
17 -0.15
18 0.08
19 -0.15
2 -0.2
20 -0.15
21 -0.15
22 -0.15
23 -0.15
24 -0.15
25 0.28
26 0.15
27 0.4
28 0.15
29 0.15
3 -0.65
30 0.15
31 0.15
32 0.15
33 0.15
34 0.15
35 0.15
36 0.15
37 0.15
4 -0.65
5 -0.36
6 -0.6
7 -0.01
8 0.1
9 0.1

> <PUBCHEM_EFFECTIVE_ROTOR_COUNT>
3.4

> <PUBCHEM_PHARMACOPHORE_FEATURES>
9
1 3 acceptor
1 4 acceptor
1 5 acceptor
1 6 cation
1 6 donor
6 11 12 16 17 18 19 rings
6 15 20 21 22 23 24 rings
6 2 6 8 9 11 12 rings
6 7 8 9 10 13 14 rings

> <PUBCHEM_HEAVY_ATOM_COUNT>
25

> <PUBCHEM_ATOM_DEF_STEREO_COUNT>
0

> <PUBCHEM_ATOM_UDEF_STEREO_COUNT>
0

> <PUBCHEM_BOND_DEF_STEREO_COUNT>
0

> <PUBCHEM_BOND_UDEF_STEREO_COUNT>
0

> <PUBCHEM_ISOTOPIC_ATOM_COUNT>
0

> <PUBCHEM_COMPONENT_COUNT>
1

> <PUBCHEM_CACTVS_TAUTO_COUNT>
1

> <PUBCHEM_CONFORMER_ID>
00BBBCD900000001

> <PUBCHEM_MMFF94_ENERGY>
72.7016

> <PUBCHEM_FEATURE_SELFOVERLAP>
45.719

> <PUBCHEM_SHAPE_FINGERPRINT>
10291535 26 18334861598164226273
105312 117 18408885127250268967
10554248 39 18130792235848589604
10577160 183 18130212784404599742
10763959 59 18410295822259709812
11036077 4 14346086330332012729
11315181 36 16370727092672796827
12236239 1 15719393949393252602
12403259 118 17895202141900408047
12403259 415 18202279230116339417
12422481 6 14056996088114713299
12596602 18 14851899040454701205
12616971 3 14056725651341161550
12633257 1 15936413351081242695
12838862 33 17703498970880432264
12969540 114 18201996612441171791
13257819 101 18262228933199908415
13402501 40 18411415081841320149
13583140 156 18187650232146153603
13690498 29 17130688639682525559
13911987 19 17704070685954613319
14347329 18 18339354176246346889
14739800 52 18114446882208844969
14767858 380 16630524037873825086
14856354 85 15864078692834714259
14950920 106 13190640316804849853
15003188 100 18201429311744161525
15142383 8 18187078439508761644
15183329 4 17632856412776497596
15238133 3 17385731305152909636
15352257 5 9943811097054307972
15510800 12 10879408639927514525
16993427 108 14420710249224493073
16994733 274 17895475955679524164
17093844 174 18040433330157491080
17349148 13 14908183062086377279
17780758 139 11963388527598685317
17844677 252 17968667145213282392
18608769 82 18410577302084859979
18769570 83 17676206857588042420
18927931 339 11600003246112536993
19489759 90 17967253130727170387
20281389 69 18186520990337788801
20511986 3 17988351655458484150
21033648 144 18202290195004737775
21033648 29 18341606040341759417
21054139 6 13470689243897845620
21130935 74 16008748052826343952
21150785 3 15052012394809536488
21279426 13 18271534108922953870
21403212 168 11819265617741356437
21859007 373 18269818896727806016
220451 1 13542198164179298278
22288116 15 15697998573982149916
22393880 68 17917696995102073943
23081809 10 16128384740160004938
23559900 14 17823432495508548926
23569914 152 16764517963586383173
2838139 119 18409442570691691221
4015057 19 16486689289777427954
4169191 19 17988367087228954848
5104073 3 17530684277474943491
7226269 152 17385723573742655157
8863177 126 8790591611779270612
9849439 229 17172074021282403805
9981440 41 18040720226079560675
999808 66 10665220445956902960

> <PUBCHEM_SHAPE_MULTIPOLES>
499.6
17.85
2.16
1.51
15.6
0.18
0.2
11.18
-4.61
-2.24
-0.33
-1.66
-0.02
2.08

> <PUBCHEM_SHAPE_SELFOVERLAP>
1076.766

> <PUBCHEM_SHAPE_VOLUME>
273.5

> <PUBCHEM_COORDINATE_TYPE>
2
5
10

$$$$
