123000
  -OEChem-03052615023D

 47 50  0     0  0  0  0  0  0999 V2000
    5.6279   -1.1388   -0.4011 S   0  0  0  0  0  0  0  0  0  0  0  0
    5.0111   -0.3095   -1.4326 O   0  0  0  0  0  0  0  0  0  0  0  0
    6.9968   -1.5693   -0.6708 O   0  0  0  0  0  0  0  0  0  0  0  0
   -2.3089    1.9897   -0.0358 N   0  5  0  0  0  0  0  0  0  0  0  0
   -0.8450   -1.9217    0.1087 N   0  0  0  0  0  0  0  0  0  0  0  0
   -6.8754    0.5065   -0.1226 N   0  0  0  0  0  0  0  0  0  0  0  0
    2.1425    3.7735    0.0389 N   0  0  0  0  0  0  0  0  0  0  0  0
    4.6796   -2.2279    0.2701 N   0  5  0  0  0  0  0  0  0  0  0  0
   -7.8951   -0.5043   -0.1251 N   0  3  0  0  0  0  0  0  0  0  0  0
    3.5728    3.6532    0.0828 N   0  3  0  0  0  0  0  0  0  0  0  0
   -8.6794   -1.2576   -0.1274 N   0  0  0  0  0  0  0  0  0  0  0  0
    4.6572    3.5789    0.1155 N   0  0  0  0  0  0  0  0  0  0  0  0
   -2.7861   -0.4087    0.0141 C   0  0  0  0  0  0  0  0  0  0  0  0
   -0.4105    0.4359    0.0579 C   0  0  0  0  0  0  0  0  0  0  0  0
   -1.3382   -0.7262    0.0629 C   0  0  0  0  0  0  0  0  0  0  0  0
   -3.1674    0.9450   -0.0319 C   0  0  0  0  0  0  0  0  0  0  0  0
   -0.9818    1.7262    0.0077 C   0  0  0  0  0  0  0  0  0  0  0  0
   -3.7369   -1.4415    0.0149 C   0  0  0  0  0  0  0  0  0  0  0  0
    0.9819    0.2626    0.1012 C   0  0  0  0  0  0  0  0  0  0  0  0
   -4.5494    1.2141   -0.0770 C   0  0  0  0  0  0  0  0  0  0  0  0
   -0.0937    2.8210    0.0028 C   0  0  0  0  0  0  0  0  0  0  0  0
   -5.5016    0.1906   -0.0764 C   0  0  0  0  0  0  0  0  0  0  0  0
    1.2913    2.6494    0.0456 C   0  0  0  0  0  0  0  0  0  0  0  0
   -5.0941   -1.1368   -0.0307 C   0  0  0  0  0  0  0  0  0  0  0  0
    1.8274    1.3701    0.0950 C   0  0  0  0  0  0  0  0  0  0  0  0
    0.5560   -1.9987    0.1498 C   0  0  0  0  0  0  0  0  0  0  0  0
    1.2804   -2.0690   -1.0372 C   0  0  0  0  0  0  0  0  0  0  0  0
    1.2137   -2.0050    1.3771 C   0  0  0  0  0  0  0  0  0  0  0  0
    3.3352   -2.1531    0.2306 C   0  0  0  0  0  0  0  0  0  0  0  0
    2.6725   -2.1465   -0.9966 C   0  0  0  0  0  0  0  0  0  0  0  0
    2.6058   -2.0824    1.4175 C   0  0  0  0  0  0  0  0  0  0  0  0
    5.8114   -0.0193    0.9718 C   0  0  0  0  0  0  0  0  0  0  0  0
   -3.4329   -2.4841    0.0506 H   0  0  0  0  0  0  0  0  0  0  0  0
    1.7639   -0.4106    0.1404 H   0  0  0  0  0  0  0  0  0  0  0  0
   -4.8911    2.2494   -0.1135 H   0  0  0  0  0  0  0  0  0  0  0  0
   -0.4957    3.8344   -0.0355 H   0  0  0  0  0  0  0  0  0  0  0  0
   -5.8065   -1.9564   -0.0289 H   0  0  0  0  0  0  0  0  0  0  0  0
    2.9053    1.2283    0.1244 H   0  0  0  0  0  0  0  0  0  0  0  0
    0.7727   -2.0761   -1.9985 H   0  0  0  0  0  0  0  0  0  0  0  0
    0.6540   -1.9571    2.3080 H   0  0  0  0  0  0  0  0  0  0  0  0
   -7.1215    1.4896   -0.1552 H   0  0  0  0  0  0  0  0  0  0  0  0
    1.7012    4.6856    0.0016 H   0  0  0  0  0  0  0  0  0  0  0  0
    3.2125   -2.2232   -1.9377 H   0  0  0  0  0  0  0  0  0  0  0  0
    3.1053   -2.0864    2.3838 H   0  0  0  0  0  0  0  0  0  0  0  0
    4.8361    0.3731    1.2645 H   0  0  0  0  0  0  0  0  0  0  0  0
    6.2795   -0.5467    1.8063 H   0  0  0  0  0  0  0  0  0  0  0  0
    6.4553    0.8048    0.6547 H   0  0  0  0  0  0  0  0  0  0  0  0
  1  2  2  0  0  0  0
  1  3  2  0  0  0  0
  1  8  1  0  0  0  0
  1 32  1  0  0  0  0
  4 16  1  0  0  0  0
  4 17  1  0  0  0  0
  5 15  2  0  0  0  0
  5 26  1  0  0  0  0
  6  9  1  0  0  0  0
  6 22  1  0  0  0  0
  6 41  1  0  0  0  0
  7 10  1  0  0  0  0
  7 23  1  0  0  0  0
  7 42  1  0  0  0  0
  8 29  1  0  0  0  0
  9 11  3  0  0  0  0
 10 12  3  0  0  0  0
 13 15  1  0  0  0  0
 13 16  2  0  0  0  0
 13 18  1  0  0  0  0
 14 15  1  0  0  0  0
 14 17  2  0  0  0  0
 14 19  1  0  0  0  0
 16 20  1  0  0  0  0
 17 21  1  0  0  0  0
 18 24  2  0  0  0  0
 18 33  1  0  0  0  0
 19 25  2  0  0  0  0
 19 34  1  0  0  0  0
 20 22  2  0  0  0  0
 20 35  1  0  0  0  0
 21 23  2  0  0  0  0
 21 36  1  0  0  0  0
 22 24  1  0  0  0  0
 23 25  1  0  0  0  0
 24 37  1  0  0  0  0
 25 38  1  0  0  0  0
 26 27  2  0  0  0  0
 26 28  1  0  0  0  0
 27 30  1  0  0  0  0
 27 39  1  0  0  0  0
 28 31  2  0  0  0  0
 28 40  1  0  0  0  0
 29 30  2  0  0  0  0
 29 31  1  0  0  0  0
 30 43  1  0  0  0  0
 31 44  1  0  0  0  0
 32 45  1  0  0  0  0
 32 46  1  0  0  0  0
 32 47  1  0  0  0  0
M  CHG  4   4  -1   8  -1   9   1  10   1
M  END
> <PUBCHEM_COMPOUND_CID>
123000

> <PUBCHEM_CONFORMER_RMSD>
0.8

> <PUBCHEM_CONFORMER_DIVERSEORDER>
1
6
16
14
13
19
4
7
20
15
9
17
12
8
10
18
5
2
11
3

> <PUBCHEM_MMFF94_PARTIAL_CHARGES>
44
1 0.73
10 1.49
11 -0.49
12 -0.49
13 0.09
14 0.09
15 0.28
16 -0.25
17 -0.25
18 -0.15
19 -0.15
2 -0.65
20 -0.15
21 -0.15
22 0.1
23 0.1
24 -0.15
25 -0.15
26 0.18
27 -0.15
28 -0.15
29 -0.25
3 -0.65
30 -0.15
31 -0.15
32 0.11
33 0.15
34 0.15
35 0.15
36 0.15
37 0.15
38 0.15
39 0.15
4 -0.5
40 0.15
41 0.4
42 0.4
43 0.15
44 0.15
5 -0.63
6 -0.5
7 -0.5
8 -0.29
9 1.49

> <PUBCHEM_EFFECTIVE_ROTOR_COUNT>
5

> <PUBCHEM_PHARMACOPHORE_FEATURES>
12
1 2 acceptor
1 3 acceptor
1 4 cation
1 4 donor
1 5 acceptor
1 6 donor
1 7 donor
1 8 donor
6 13 16 18 20 22 24 rings
6 14 17 19 21 23 25 rings
6 26 27 28 29 30 31 rings
6 4 13 14 15 16 17 rings

> <PUBCHEM_HEAVY_ATOM_COUNT>
32

> <PUBCHEM_ATOM_DEF_STEREO_COUNT>
0

> <PUBCHEM_ATOM_UDEF_STEREO_COUNT>
0

> <PUBCHEM_BOND_DEF_STEREO_COUNT>
0

> <PUBCHEM_BOND_UDEF_STEREO_COUNT>
0

> <PUBCHEM_ISOTOPIC_ATOM_COUNT>
0

> <PUBCHEM_COMPONENT_COUNT>
1

> <PUBCHEM_CACTVS_TAUTO_COUNT>
5

> <PUBCHEM_CONFORMER_ID>
0001E07800000001

> <PUBCHEM_MMFF94_ENERGY>
204.6819

> <PUBCHEM_FEATURE_SELFOVERLAP>
60.974

> <PUBCHEM_SHAPE_FINGERPRINT>
10050765 1 18266740380070735631
10411042 1 18266457598906878986
10906281 52 18266198161454739451
1100329 8 18409165549928304370
11135609 187 18265338489807925152
12107698 1 18412824668917373639
12166972 35 18131347497462397891
12236239 1 17750518377517239979
12516196 113 18340765957955937539
12717326 120 16227470684019842827
13402501 40 18412824660432752210
13617811 41 18114187487833765228
14170010 4 18413105069682671035
14415361 349 17561076995128300439
14725015 67 18335692824786471392
14787075 74 18113904810513461778
14790565 3 18411141294533757208
14955137 171 18202561774408044080
15439362 3 18190744326438901356
15849732 13 17989484108947500199
15927050 60 18052820548821236134
16067689 302 18339368586589605295
18681886 176 18343013385540583419
19319366 153 17749106651879685603
20642791 35 18410011070127655906
20721686 56 18335703884073661057
21049683 271 18260554419830189149
21267235 1 18411421696644421507
21781055 127 16773536412542236843
22311459 1 18410293579659280523
2260408 40 17416432920933065491
23352939 185 18271811181357258626
23559900 14 18412818097406544329
24771293 8 18128798898334301656
24771750 20 18190191263225558117
27425 322 16371857433908437964
3178227 256 18335433344158026523
3298306 158 18122915484570909492
335352 9 18410576205686616279
3411729 13 18335415832900925753
34797466 226 17275103921006836358
350125 39 18409167671705413045
4073 2 18115027545525169243
4093350 32 17346883359998671708
4325135 7 18334297531013094182
5104073 3 18408611362430555281
6669772 16 18266458892335613532
9962374 69 18342731958494438623

> <PUBCHEM_SHAPE_MULTIPOLES>
605.83
16.26
3.9
0.9
20.79
3.82
-0.05
-5.42
1.56
-5
-0.17
-0.98
-0.45
0.21

> <PUBCHEM_SHAPE_SELFOVERLAP>
1335.693

> <PUBCHEM_SHAPE_VOLUME>
326.7

> <PUBCHEM_COORDINATE_TYPE>
2
5
10

$$$$
