124434
  -OEChem-03052615013D

 25 26  0     1  0  0  0  0  0999 V2000
    2.6571    0.1890    0.5790 O   0  0  0  0  0  0  0  0  0  0  0  0
    1.0517    2.1120   -0.7125 O   0  0  0  0  0  0  0  0  0  0  0  0
   -2.7390   -0.7495   -0.2131 O   0  0  0  0  0  0  0  0  0  0  0  0
   -1.7748    2.0401    0.2234 O   0  0  0  0  0  0  0  0  0  0  0  0
    0.6955   -1.0825    1.1354 N   0  0  0  0  0  0  0  0  0  0  0  0
    1.3161   -0.1102    0.2236 C   0  0  1  0  0  0  0  0  0  0  0  0
   -0.5064   -1.5035    0.4049 C   0  0  2  0  0  0  0  0  0  0  0  0
    0.4759    1.1859    0.2120 C   0  0  2  0  0  0  0  0  0  0  0  0
    1.2847   -0.8717   -1.1036 C   0  0  0  0  0  0  0  0  0  0  0  0
    0.0564   -1.7791   -0.9934 C   0  0  0  0  0  0  0  0  0  0  0  0
   -1.5337   -0.3578    0.4397 C   0  0  1  0  0  0  0  0  0  0  0  0
   -0.9835    0.9273   -0.1954 C   0  0  1  0  0  0  0  0  0  0  0  0
   -0.9398   -2.4153    0.8292 H   0  0  0  0  0  0  0  0  0  0  0  0
    0.5249    1.6739    1.1933 H   0  0  0  0  0  0  0  0  0  0  0  0
    2.1856   -1.4851   -1.2344 H   0  0  0  0  0  0  0  0  0  0  0  0
    1.2224   -0.2234   -1.9822 H   0  0  0  0  0  0  0  0  0  0  0  0
   -0.6674   -1.5849   -1.7912 H   0  0  0  0  0  0  0  0  0  0  0  0
    0.3731   -2.8257   -1.0794 H   0  0  0  0  0  0  0  0  0  0  0  0
   -1.8118   -0.1487    1.4813 H   0  0  0  0  0  0  0  0  0  0  0  0
   -1.0911    0.8802   -1.2859 H   0  0  0  0  0  0  0  0  0  0  0  0
    0.4480   -0.6392    2.0187 H   0  0  0  0  0  0  0  0  0  0  0  0
    3.0937   -0.6553    0.7832 H   0  0  0  0  0  0  0  0  0  0  0  0
    0.8740    1.8061   -1.6168 H   0  0  0  0  0  0  0  0  0  0  0  0
   -3.0562   -1.5608    0.2191 H   0  0  0  0  0  0  0  0  0  0  0  0
   -1.3969    2.8367   -0.1872 H   0  0  0  0  0  0  0  0  0  0  0  0
  1  6  1  0  0  0  0
  1 22  1  0  0  0  0
  2  8  1  0  0  0  0
  2 23  1  0  0  0  0
  3 11  1  0  0  0  0
  3 24  1  0  0  0  0
  4 12  1  0  0  0  0
  4 25  1  0  0  0  0
  5  6  1  0  0  0  0
  5  7  1  0  0  0  0
  5 21  1  0  0  0  0
  6  8  1  0  0  0  0
  6  9  1  0  0  0  0
  7 10  1  0  0  0  0
  7 11  1  0  0  0  0
  7 13  1  0  0  0  0
  8 12  1  0  0  0  0
  8 14  1  0  0  0  0
  9 10  1  0  0  0  0
  9 15  1  0  0  0  0
  9 16  1  0  0  0  0
 10 17  1  0  0  0  0
 10 18  1  0  0  0  0
 11 12  1  0  0  0  0
 11 19  1  0  0  0  0
 12 20  1  0  0  0  0
M  END
> <PUBCHEM_COMPOUND_CID>
124434

> <PUBCHEM_CONFORMER_RMSD>
0.4

> <PUBCHEM_CONFORMER_DIVERSEORDER>
1

> <PUBCHEM_MMFF94_PARTIAL_CHARGES>
15
1 -0.68
11 0.28
12 0.28
2 -0.68
21 0.36
22 0.4
23 0.4
24 0.4
25 0.4
3 -0.68
4 -0.68
5 -0.9
6 0.55
7 0.27
8 0.28

> <PUBCHEM_EFFECTIVE_ROTOR_COUNT>
1.2

> <PUBCHEM_PHARMACOPHORE_FEATURES>
11
1 1 acceptor
1 1 donor
1 2 acceptor
1 2 donor
1 3 acceptor
1 3 donor
1 4 acceptor
1 4 donor
1 5 cation
1 5 donor
8 5 6 7 8 9 10 11 12 rings

> <PUBCHEM_HEAVY_ATOM_COUNT>
12

> <PUBCHEM_ATOM_DEF_STEREO_COUNT>
5

> <PUBCHEM_ATOM_UDEF_STEREO_COUNT>
0

> <PUBCHEM_BOND_DEF_STEREO_COUNT>
0

> <PUBCHEM_BOND_UDEF_STEREO_COUNT>
0

> <PUBCHEM_ISOTOPIC_ATOM_COUNT>
0

> <PUBCHEM_COMPONENT_COUNT>
1

> <PUBCHEM_CACTVS_TAUTO_COUNT>
1

> <PUBCHEM_CONFORMER_ID>
0001E61200000001

> <PUBCHEM_MMFF94_ENERGY>
28.1802

> <PUBCHEM_FEATURE_SELFOVERLAP>
55.865

> <PUBCHEM_SHAPE_FINGERPRINT>
12423570 1 8251835848928093994
13024252 1 17386548259176810490
16945 1 18336554905403834762
18185500 45 17973446499020963553
21040471 1 17904768773619999321
241688 4 18050865324487919850
2748010 2 18267870466995185375
5084963 1 18273500086741042530
68250623 7 18193270802337921298

> <PUBCHEM_SHAPE_MULTIPOLES>
218.5
2.56
2.09
0.98
0.48
0.59
0.05
0.23
-0.16
0.26
0.36
-0.29
-0.27
0.02

> <PUBCHEM_SHAPE_SELFOVERLAP>
459.335

> <PUBCHEM_SHAPE_VOLUME>
123.8

> <PUBCHEM_COORDINATE_TYPE>
2
5
10

$$$$
