12521284
  -OEChem-03052615053D

 26 26  0     0  0  0  0  0  0999 V2000
    0.3277   -1.9409    0.3316 O   0  0  0  0  0  0  0  0  0  0  0  0
    2.6970   -0.5146    0.4184 O   0  0  0  0  0  0  0  0  0  0  0  0
   -2.1863   -0.6572   -0.0378 C   0  0  0  0  0  0  0  0  0  0  0  0
   -0.8942    0.0897    0.0111 C   0  0  0  0  0  0  0  0  0  0  0  0
   -2.9002   -0.5070   -1.3937 C   0  0  0  0  0  0  0  0  0  0  0  0
   -3.1393   -0.2569    1.1034 C   0  0  0  0  0  0  0  0  0  0  0  0
    0.3133   -0.5839    0.1950 C   0  0  0  0  0  0  0  0  0  0  0  0
   -0.9044    1.4776   -0.1290 C   0  0  0  0  0  0  0  0  0  0  0  0
    1.5106    0.1303    0.2391 C   0  0  0  0  0  0  0  0  0  0  0  0
    0.2927    2.1920   -0.0840 C   0  0  0  0  0  0  0  0  0  0  0  0
    1.5001    1.5182    0.1003 C   0  0  0  0  0  0  0  0  0  0  0  0
    3.3831   -0.9476   -0.7546 C   0  0  0  0  0  0  0  0  0  0  0  0
   -2.0267   -1.7343    0.0721 H   0  0  0  0  0  0  0  0  0  0  0  0
   -3.2137    0.5256   -1.5809 H   0  0  0  0  0  0  0  0  0  0  0  0
   -3.7962   -1.1364   -1.4284 H   0  0  0  0  0  0  0  0  0  0  0  0
   -2.2430   -0.8127   -2.2155 H   0  0  0  0  0  0  0  0  0  0  0  0
   -3.4607    0.7871    1.0239 H   0  0  0  0  0  0  0  0  0  0  0  0
   -2.6548   -0.3865    2.0776 H   0  0  0  0  0  0  0  0  0  0  0  0
   -4.0386   -0.8824    1.0900 H   0  0  0  0  0  0  0  0  0  0  0  0
   -1.8320    2.0246   -0.2733 H   0  0  0  0  0  0  0  0  0  0  0  0
    0.2850    3.2726   -0.1923 H   0  0  0  0  0  0  0  0  0  0  0  0
    2.4288    2.0814    0.1350 H   0  0  0  0  0  0  0  0  0  0  0  0
   -0.3750   -2.1987    0.9513 H   0  0  0  0  0  0  0  0  0  0  0  0
    3.6465   -0.0906   -1.3826 H   0  0  0  0  0  0  0  0  0  0  0  0
    2.7696   -1.6547   -1.3217 H   0  0  0  0  0  0  0  0  0  0  0  0
    4.3033   -1.4515   -0.4468 H   0  0  0  0  0  0  0  0  0  0  0  0
  1  7  1  0  0  0  0
  1 23  1  0  0  0  0
  2  9  1  0  0  0  0
  2 12  1  0  0  0  0
  3  4  1  0  0  0  0
  3  5  1  0  0  0  0
  3  6  1  0  0  0  0
  3 13  1  0  0  0  0
  4  7  2  0  0  0  0
  4  8  1  0  0  0  0
  5 14  1  0  0  0  0
  5 15  1  0  0  0  0
  5 16  1  0  0  0  0
  6 17  1  0  0  0  0
  6 18  1  0  0  0  0
  6 19  1  0  0  0  0
  7  9  1  0  0  0  0
  8 10  2  0  0  0  0
  8 20  1  0  0  0  0
  9 11  2  0  0  0  0
 10 11  1  0  0  0  0
 10 21  1  0  0  0  0
 11 22  1  0  0  0  0
 12 24  1  0  0  0  0
 12 25  1  0  0  0  0
 12 26  1  0  0  0  0
M  END
> <PUBCHEM_COMPOUND_CID>
12521284

> <PUBCHEM_CONFORMER_RMSD>
0.6

> <PUBCHEM_CONFORMER_DIVERSEORDER>
1
2

> <PUBCHEM_MMFF94_PARTIAL_CHARGES>
14
1 -0.53
10 -0.15
11 -0.15
12 0.28
2 -0.36
20 0.15
21 0.15
22 0.15
23 0.45
3 0.14
4 -0.14
7 0.08
8 -0.15
9 0.08

> <PUBCHEM_EFFECTIVE_ROTOR_COUNT>
2

> <PUBCHEM_PHARMACOPHORE_FEATURES>
4
1 1 donor
1 2 acceptor
3 3 5 6 hydrophobe
6 4 7 8 9 10 11 rings

> <PUBCHEM_HEAVY_ATOM_COUNT>
12

> <PUBCHEM_ATOM_DEF_STEREO_COUNT>
0

> <PUBCHEM_ATOM_UDEF_STEREO_COUNT>
0

> <PUBCHEM_BOND_DEF_STEREO_COUNT>
0

> <PUBCHEM_BOND_UDEF_STEREO_COUNT>
0

> <PUBCHEM_ISOTOPIC_ATOM_COUNT>
0

> <PUBCHEM_COMPONENT_COUNT>
1

> <PUBCHEM_CACTVS_TAUTO_COUNT>
3

> <PUBCHEM_CONFORMER_ID>
00BF0F4400000001

> <PUBCHEM_MMFF94_ENERGY>
43.8403

> <PUBCHEM_FEATURE_SELFOVERLAP>
20.297

> <PUBCHEM_SHAPE_FINGERPRINT>
10353120 184 18335430040594465140
11206711 2 18262232214338761308
11769659 78 17346590876677909806
12032990 46 18409176505920326058
12423570 1 12502084997846350997
12524768 44 18266735960126751832
13380535 21 17901683874747061704
13380535 76 17978497964903699048
14128692 85 18272649073346785724
161256 15 18410571812225495216
16945 1 18335414668811658187
17844478 74 17676775361392710241
193761 8 17617095806792590810
20645477 70 18267853064399924423
20711985 344 18044079177402865949
21040471 1 17832139794260347585
21061003 4 18334588940285544563
23402539 116 18411695449058885686
23552423 10 18334293167051683284
241688 4 18410854322125781264
2748010 2 18119528983844940642
449060 23 18131354076888253270
5084963 1 18202274827326487163
63268167 104 18268704094630788161
81228 2 18192425264826792704

> <PUBCHEM_SHAPE_MULTIPOLES>
235.22
4.63
1.84
0.96
0.08
0.71
-0.15
-1.83
-0.47
0.64
-0.05
-0.63
-0.17
0.05

> <PUBCHEM_SHAPE_SELFOVERLAP>
481.003

> <PUBCHEM_SHAPE_VOLUME>
137.6

> <PUBCHEM_COORDINATE_TYPE>
2
5
10

$$$$
