125203
  -OEChem-03052615033D

 31 30  0     1  0  0  0  0  0999 V2000
   -4.3699   -0.4736    0.2101 S   0  0  0  0  0  0  0  0  0  0  0  0
   -2.0031    0.8696   -0.2314 P   0  0  1  0  0  0  0  0  0  0  0  0
   -2.8007   -0.5485   -0.2386 O   0  0  0  0  0  0  0  0  0  0  0  0
   -2.7020    1.6662   -1.4639 O   0  0  0  0  0  0  0  0  0  0  0  0
   -2.1263    1.6243    1.0667 O   0  0  0  0  0  0  0  0  0  0  0  0
    4.8151    0.8745    1.5202 O   0  0  0  0  0  0  0  0  0  0  0  0
    5.3740    0.9982   -0.6734 O   0  0  0  0  0  0  0  0  0  0  0  0
   -4.4231   -0.1024    1.6122 O   0  0  0  0  0  0  0  0  0  0  0  0
   -5.1030    0.2888   -0.7834 O   0  0  0  0  0  0  0  0  0  0  0  0
   -0.4567    0.5242   -0.7175 N   0  0  0  0  0  0  0  0  0  0  0  0
    4.4830   -1.5110   -1.1947 N   0  0  0  0  0  0  0  0  0  0  0  0
   -4.8804   -2.1064    0.0884 N   0  0  0  0  0  0  0  0  0  0  0  0
    1.8629   -0.1636   -0.3144 C   0  0  0  0  0  0  0  0  0  0  0  0
    2.7825   -1.0198    0.5676 C   0  0  0  0  0  0  0  0  0  0  0  0
    0.4057   -0.2871    0.1335 C   0  0  0  0  0  0  0  0  0  0  0  0
    4.2643   -1.0097    0.1618 C   0  0  2  0  0  0  0  0  0  0  0  0
    4.8776    0.3763    0.2569 C   0  0  0  0  0  0  0  0  0  0  0  0
    2.1758    0.8865   -0.2693 H   0  0  0  0  0  0  0  0  0  0  0  0
    1.9415   -0.4822   -1.3603 H   0  0  0  0  0  0  0  0  0  0  0  0
    2.4233   -2.0575    0.5526 H   0  0  0  0  0  0  0  0  0  0  0  0
    2.6895   -0.6797    1.6070 H   0  0  0  0  0  0  0  0  0  0  0  0
    0.0782   -1.3317    0.0946 H   0  0  0  0  0  0  0  0  0  0  0  0
    0.3169    0.0509    1.1720 H   0  0  0  0  0  0  0  0  0  0  0  0
    4.8295   -1.6554    0.8442 H   0  0  0  0  0  0  0  0  0  0  0  0
   -0.3461    0.2212   -1.6849 H   0  0  0  0  0  0  0  0  0  0  0  0
    4.0265   -0.9041   -1.8738 H   0  0  0  0  0  0  0  0  0  0  0  0
    4.0444   -2.4258   -1.2946 H   0  0  0  0  0  0  0  0  0  0  0  0
   -3.6074    2.0237   -1.3428 H   0  0  0  0  0  0  0  0  0  0  0  0
    5.2094    1.7708    1.5791 H   0  0  0  0  0  0  0  0  0  0  0  0
   -4.4783   -2.7660    0.7668 H   0  0  0  0  0  0  0  0  0  0  0  0
   -4.9341   -2.5022   -0.8589 H   0  0  0  0  0  0  0  0  0  0  0  0
  1  3  1  0  0  0  0
  1  8  2  0  0  0  0
  1  9  2  0  0  0  0
  1 12  1  0  0  0  0
  2  3  1  0  0  0  0
  2  4  1  0  0  0  0
  2  5  2  0  0  0  0
  2 10  1  0  0  0  0
  4 28  1  0  0  0  0
  6 17  1  0  0  0  0
  6 29  1  0  0  0  0
  7 17  2  0  0  0  0
 10 15  1  0  0  0  0
 10 25  1  0  0  0  0
 11 16  1  0  0  0  0
 11 26  1  0  0  0  0
 11 27  1  0  0  0  0
 12 30  1  0  0  0  0
 12 31  1  0  0  0  0
 13 14  1  0  0  0  0
 13 15  1  0  0  0  0
 13 18  1  0  0  0  0
 13 19  1  0  0  0  0
 14 16  1  0  0  0  0
 14 20  1  0  0  0  0
 14 21  1  0  0  0  0
 15 22  1  0  0  0  0
 15 23  1  0  0  0  0
 16 17  1  0  0  0  0
 16 24  1  0  0  0  0
M  END
> <PUBCHEM_COMPOUND_CID>
125203

> <PUBCHEM_CONFORMER_RMSD>
1

> <PUBCHEM_CONFORMER_DIVERSEORDER>
1
79
456
17
307
498
265
211
283
43
475
96
148
180
406
2
276
448
413
14
421
55
161
115
362
245
317
247
339
375
36
209
464
11
436
193
290
37
397
64
111
269
70
491
34
500
80
267
231
49
5
274
208
225
220
346
18
135
196
314
202
21
124
59
12
412
259
4
229
297
336
233
10
232
503
109
415
349
301
73
332
56
426
215
89
3
234
237
360
16
101
44
39
442
38
60
219
176
485
104
159
178
85
222
218
68
465
334
6
440
120
155
298
28
207
384
394
389
221
286
490
99
66
455
318
50
335
270
174
452
137
33
138
228
340
331
305
158
459
166
310
139
173
69
478
388
422
86
145
191
119
315
378
32
241
98
154
8
368
250
150
431
103
72
466
391
200
249
268
460
337
345
182
288
84
187
272
499
361
311
306
102
40
329
300

> <PUBCHEM_MMFF94_PARTIAL_CHARGES>
22
1 1.62
10 -0.9
11 -0.99
12 -0.98
15 0.27
16 0.33
17 0.66
2 1.51
25 0.36
26 0.36
27 0.36
28 0.5
29 0.5
3 -0.45
30 0.42
31 0.42
4 -0.77
5 -0.7
6 -0.65
7 -0.57
8 -0.65
9 -0.65

> <PUBCHEM_EFFECTIVE_ROTOR_COUNT>
8

> <PUBCHEM_PHARMACOPHORE_FEATURES>
10
1 11 cation
1 11 donor
1 12 donor
1 4 acceptor
1 5 acceptor
1 6 acceptor
1 7 acceptor
1 8 acceptor
1 9 acceptor
3 6 7 17 anion

> <PUBCHEM_HEAVY_ATOM_COUNT>
17

> <PUBCHEM_ATOM_DEF_STEREO_COUNT>
1

> <PUBCHEM_ATOM_UDEF_STEREO_COUNT>
0

> <PUBCHEM_BOND_DEF_STEREO_COUNT>
0

> <PUBCHEM_BOND_UDEF_STEREO_COUNT>
0

> <PUBCHEM_ISOTOPIC_ATOM_COUNT>
0

> <PUBCHEM_COMPONENT_COUNT>
1

> <PUBCHEM_CACTVS_TAUTO_COUNT>
2

> <PUBCHEM_CONFORMER_ID>
0001E91300000001

> <PUBCHEM_MMFF94_ENERGY>
-10.5093

> <PUBCHEM_FEATURE_SELFOVERLAP>
50.842

> <PUBCHEM_SHAPE_FINGERPRINT>
11287383 113 18408602574072879026
13237642 15 18407757041004261704
14123238 8 18202282506849383558
1420 363 18114187423545560586
14251718 22 18334295392087186350
14251758 9 10519989253399233388
14251764 18 18343304765386825913
15880784 105 18273501173405114155
17834072 33 18333452062336817700
17844677 252 18272093747224351152
18186145 218 18338517418343904014
18785283 64 18122898987417318720
19489759 90 15430031050141829925
200 152 17095243622743864209
20645477 70 18059861606790921758
23218964 4 10807943660632520182
23402539 116 11819271174653986275
23557571 272 18187932703286024268
23559900 14 18335411409549029149
32948 21 10303817596635530946
4325135 7 18335140925076702486
5104073 3 18340201878389000048
522135 26 16917066651493696590
542803 24 15626223532989092594

> <PUBCHEM_SHAPE_MULTIPOLES>
301.52
14.09
1.54
1.17
3.48
0.16
-0.18
1.92
-0.65
-0.68
0.16
-0.02
-0.24
0.76

> <PUBCHEM_SHAPE_SELFOVERLAP>
552.721

> <PUBCHEM_SHAPE_VOLUME>
190.4

> <PUBCHEM_COORDINATE_TYPE>
2
5
10

$$$$
