127406
  -OEChem-03052615083D

 70 73  0     1  0  0  0  0  0999 V2000
   -0.1401   -0.5274   -1.0267 O   0  0  0  0  0  0  0  0  0  0  0  0
    2.2090    0.9235   -0.7510 O   0  0  0  0  0  0  0  0  0  0  0  0
   -2.0893    1.3890   -0.1926 O   0  0  0  0  0  0  0  0  0  0  0  0
    1.6244    3.6130    0.0579 O   0  0  0  0  0  0  0  0  0  0  0  0
    0.0437    5.1801   -2.6949 O   0  0  0  0  0  0  0  0  0  0  0  0
    1.4435    5.9577   -1.0728 O   0  0  0  0  0  0  0  0  0  0  0  0
   -0.4446   -1.2425   -3.1934 O   0  0  0  0  0  0  0  0  0  0  0  0
    3.9085    0.5151   -2.2489 O   0  0  0  0  0  0  0  0  0  0  0  0
   -1.9670    1.9774    2.0295 O   0  0  0  0  0  0  0  0  0  0  0  0
   -1.8060   -6.1009   -2.0746 O   0  0  0  0  0  0  0  0  0  0  0  0
    1.1177   -4.6279    1.4209 O   0  0  0  0  0  0  0  0  0  0  0  0
    7.7798    0.4854    1.1740 O   0  0  0  0  0  0  0  0  0  0  0  0
   -7.0526    2.1091    2.9370 O   0  0  0  0  0  0  0  0  0  0  0  0
    3.8591   -1.0100    3.4824 O   0  0  0  0  0  0  0  0  0  0  0  0
   -6.3325   -1.1170   -0.5285 O   0  0  0  0  0  0  0  0  0  0  0  0
   -0.3536   -6.6439    0.2202 O   0  0  0  0  0  0  0  0  0  0  0  0
    6.5881   -0.5375    3.4552 O   0  0  0  0  0  0  0  0  0  0  0  0
   -8.0385    0.1456    1.2508 O   0  0  0  0  0  0  0  0  0  0  0  0
    0.8017    3.6249   -1.1025 C   0  0  0  0  0  0  0  0  0  0  0  0
   -0.1149    0.8300   -1.4651 C   0  0  0  0  0  0  0  0  0  0  0  0
    1.3199    1.2289   -1.8259 C   0  0  1  0  0  0  0  0  0  0  0  0
   -0.7103    1.7147   -0.3673 C   0  0  1  0  0  0  0  0  0  0  0  0
    1.4198    2.7181   -2.1767 C   0  0  0  0  0  0  0  0  0  0  0  0
   -0.6225    3.1951   -0.7448 C   0  0  0  0  0  0  0  0  0  0  0  0
    0.8199    5.0442   -1.5920 C   0  0  0  0  0  0  0  0  0  0  0  0
   -0.3122   -1.4613   -1.9993 C   0  0  0  0  0  0  0  0  0  0  0  0
    3.4741    0.5822   -1.1095 C   0  0  0  0  0  0  0  0  0  0  0  0
   -2.5865    1.5689    1.0595 C   0  0  0  0  0  0  0  0  0  0  0  0
   -0.3218   -2.8265   -1.4156 C   0  0  0  0  0  0  0  0  0  0  0  0
    4.2938    0.2887    0.0931 C   0  0  0  0  0  0  0  0  0  0  0  0
   -4.0225    1.1951    1.1087 C   0  0  0  0  0  0  0  0  0  0  0  0
    0.4102   -3.0958   -0.2591 C   0  0  0  0  0  0  0  0  0  0  0  0
   -1.0649   -3.8391   -2.0222 C   0  0  0  0  0  0  0  0  0  0  0  0
    3.6901   -0.2273    1.2399 C   0  0  0  0  0  0  0  0  0  0  0  0
   -4.5152    0.2050    0.2586 C   0  0  0  0  0  0  0  0  0  0  0  0
    5.6680    0.5267    0.0755 C   0  0  0  0  0  0  0  0  0  0  0  0
   -4.8786    1.8322    2.0069 C   0  0  0  0  0  0  0  0  0  0  0  0
   -1.0760   -5.1211   -1.4724 C   0  0  0  0  0  0  0  0  0  0  0  0
    0.3990   -4.3777    0.2907 C   0  0  0  0  0  0  0  0  0  0  0  0
    6.4386    0.2486    1.2045 C   0  0  0  0  0  0  0  0  0  0  0  0
   -6.2272    1.4792    2.0550 C   0  0  0  0  0  0  0  0  0  0  0  0
    4.4607   -0.5056    2.3688 C   0  0  0  0  0  0  0  0  0  0  0  0
   -5.8638   -0.1481    0.3067 C   0  0  0  0  0  0  0  0  0  0  0  0
   -0.3441   -5.3902   -0.3159 C   0  0  0  0  0  0  0  0  0  0  0  0
    5.8350   -0.2676    2.3511 C   0  0  0  0  0  0  0  0  0  0  0  0
   -6.7198    0.4891    1.2050 C   0  0  0  0  0  0  0  0  0  0  0  0
   -0.7574    0.9460   -2.3497 H   0  0  0  0  0  0  0  0  0  0  0  0
    1.6050    0.6380   -2.7062 H   0  0  0  0  0  0  0  0  0  0  0  0
   -0.1582    1.5210    0.5622 H   0  0  0  0  0  0  0  0  0  0  0  0
    2.4733    2.9885   -2.3242 H   0  0  0  0  0  0  0  0  0  0  0  0
    0.9137    2.8712   -3.1385 H   0  0  0  0  0  0  0  0  0  0  0  0
   -0.9948    3.8000    0.0925 H   0  0  0  0  0  0  0  0  0  0  0  0
   -1.3154    3.3894   -1.5745 H   0  0  0  0  0  0  0  0  0  0  0  0
    2.5419    3.7873   -0.2130 H   0  0  0  0  0  0  0  0  0  0  0  0
    0.0414    6.1020   -3.0301 H   0  0  0  0  0  0  0  0  0  0  0  0
    1.0034   -2.3193    0.2174 H   0  0  0  0  0  0  0  0  0  0  0  0
   -1.6392   -3.6302   -2.9218 H   0  0  0  0  0  0  0  0  0  0  0  0
    2.6219   -0.4289    1.2639 H   0  0  0  0  0  0  0  0  0  0  0  0
   -3.8565   -0.3093   -0.4373 H   0  0  0  0  0  0  0  0  0  0  0  0
    6.1401    0.9316   -0.8166 H   0  0  0  0  0  0  0  0  0  0  0  0
   -4.4971    2.6062    2.6687 H   0  0  0  0  0  0  0  0  0  0  0  0
   -2.2453   -5.7324   -2.8603 H   0  0  0  0  0  0  0  0  0  0  0  0
    1.5680   -3.8116    1.6985 H   0  0  0  0  0  0  0  0  0  0  0  0
    8.0197    0.8411    0.3011 H   0  0  0  0  0  0  0  0  0  0  0  0
   -6.5387    2.7626    3.4417 H   0  0  0  0  0  0  0  0  0  0  0  0
    2.9070   -1.1105    3.3115 H   0  0  0  0  0  0  0  0  0  0  0  0
   -5.6001   -1.4446   -1.0782 H   0  0  0  0  0  0  0  0  0  0  0  0
    0.2078   -6.6422    1.0149 H   0  0  0  0  0  0  0  0  0  0  0  0
    6.0018   -0.8868    4.1488 H   0  0  0  0  0  0  0  0  0  0  0  0
   -8.1966   -0.5539    0.5931 H   0  0  0  0  0  0  0  0  0  0  0  0
  1 20  1  0  0  0  0
  1 26  1  0  0  0  0
  2 21  1  0  0  0  0
  2 27  1  0  0  0  0
  3 22  1  0  0  0  0
  3 28  1  0  0  0  0
  4 19  1  0  0  0  0
  4 54  1  0  0  0  0
  5 25  1  0  0  0  0
  5 55  1  0  0  0  0
  6 25  2  0  0  0  0
  7 26  2  0  0  0  0
  8 27  2  0  0  0  0
  9 28  2  0  0  0  0
 10 38  1  0  0  0  0
 10 62  1  0  0  0  0
 11 39  1  0  0  0  0
 11 63  1  0  0  0  0
 12 40  1  0  0  0  0
 12 64  1  0  0  0  0
 13 41  1  0  0  0  0
 13 65  1  0  0  0  0
 14 42  1  0  0  0  0
 14 66  1  0  0  0  0
 15 43  1  0  0  0  0
 15 67  1  0  0  0  0
 16 44  1  0  0  0  0
 16 68  1  0  0  0  0
 17 45  1  0  0  0  0
 17 69  1  0  0  0  0
 18 46  1  0  0  0  0
 18 70  1  0  0  0  0
 19 23  1  0  0  0  0
 19 24  1  0  0  0  0
 19 25  1  0  0  0  0
 20 21  1  0  0  0  0
 20 22  1  0  0  0  0
 20 47  1  0  0  0  0
 21 23  1  0  0  0  0
 21 48  1  0  0  0  0
 22 24  1  0  0  0  0
 22 49  1  0  0  0  0
 23 50  1  0  0  0  0
 23 51  1  0  0  0  0
 24 52  1  0  0  0  0
 24 53  1  0  0  0  0
 26 29  1  0  0  0  0
 27 30  1  0  0  0  0
 28 31  1  0  0  0  0
 29 32  2  0  0  0  0
 29 33  1  0  0  0  0
 30 34  2  0  0  0  0
 30 36  1  0  0  0  0
 31 35  2  0  0  0  0
 31 37  1  0  0  0  0
 32 39  1  0  0  0  0
 32 56  1  0  0  0  0
 33 38  2  0  0  0  0
 33 57  1  0  0  0  0
 34 42  1  0  0  0  0
 34 58  1  0  0  0  0
 35 43  1  0  0  0  0
 35 59  1  0  0  0  0
 36 40  2  0  0  0  0
 36 60  1  0  0  0  0
 37 41  2  0  0  0  0
 37 61  1  0  0  0  0
 38 44  1  0  0  0  0
 39 44  2  0  0  0  0
 40 45  1  0  0  0  0
 41 46  1  0  0  0  0
 42 45  2  0  0  0  0
 43 46  2  0  0  0  0
M  END
> <PUBCHEM_COMPOUND_CID>
127406

> <PUBCHEM_CONFORMER_RMSD>
1.2

> <PUBCHEM_CONFORMER_DIVERSEORDER>
1
7
16
12
13
8
6
15
9
5
11
14
10
2
4
3

> <PUBCHEM_MMFF94_PARTIAL_CHARGES>
61
1 -0.43
10 -0.53
11 -0.53
12 -0.53
13 -0.53
14 -0.53
15 -0.53
16 -0.53
17 -0.53
18 -0.53
19 0.34
2 -0.43
20 0.28
21 0.28
22 0.28
25 0.66
26 0.63
27 0.63
28 0.63
29 0.09
3 -0.43
30 0.09
31 0.09
32 -0.15
33 -0.15
34 -0.15
35 -0.15
36 -0.15
37 -0.15
38 0.08
39 0.08
4 -0.68
40 0.08
41 0.08
42 0.08
43 0.08
44 0.08
45 0.08
46 0.08
5 -0.65
54 0.4
55 0.5
56 0.15
57 0.15
58 0.15
59 0.15
6 -0.57
60 0.15
61 0.15
62 0.45
63 0.45
64 0.45
65 0.45
66 0.45
67 0.45
68 0.45
69 0.45
7 -0.57
70 0.45
8 -0.57
9 -0.57

> <PUBCHEM_EFFECTIVE_ROTOR_COUNT>
11.2

> <PUBCHEM_PHARMACOPHORE_FEATURES>
21
1 10 donor
1 11 donor
1 12 donor
1 13 donor
1 14 donor
1 15 donor
1 16 donor
1 17 donor
1 18 donor
1 4 acceptor
1 4 donor
1 5 acceptor
1 6 acceptor
1 7 acceptor
1 8 acceptor
1 9 acceptor
3 5 6 25 anion
6 19 20 21 22 23 24 rings
6 29 32 33 38 39 44 rings
6 30 34 36 40 42 45 rings
6 31 35 37 41 43 46 rings

> <PUBCHEM_HEAVY_ATOM_COUNT>
46

> <PUBCHEM_ATOM_DEF_STEREO_COUNT>
2

> <PUBCHEM_ATOM_UDEF_STEREO_COUNT>
0

> <PUBCHEM_BOND_DEF_STEREO_COUNT>
0

> <PUBCHEM_BOND_UDEF_STEREO_COUNT>
0

> <PUBCHEM_ISOTOPIC_ATOM_COUNT>
0

> <PUBCHEM_COMPONENT_COUNT>
1

> <PUBCHEM_CACTVS_TAUTO_COUNT>
1001

> <PUBCHEM_CONFORMER_ID>
0001F1AE00000001

> <PUBCHEM_MMFF94_ENERGY>
125.2895

> <PUBCHEM_FEATURE_SELFOVERLAP>
106.682

> <PUBCHEM_SHAPE_FINGERPRINT>
10074138 170 18271796986406533454
11445158 3 17894914057122289757
12608794 3 18339352071854783917
12717326 68 18118123571993589481
12788726 201 17549828136904628039
12977781 61 17540813897818875573
14020679 6 17703492381514195400
14675020 138 18201169784540547801
14910700 183 18411426102484347248
15775530 1 17616249183024138092
15781502 461 17749378218376373876
15815584 197 18195248819550702429
16112460 7 18267859678026814580
16728300 4 17750220422887547768
18365409 1 18059007406330633631
21033648 29 17917436418929726096
22956985 138 17903929850411929799
255183 313 18340473513674879826
4573279 79 16805604716125247154
9981440 41 17617906194846160028

> <PUBCHEM_SHAPE_MULTIPOLES>
841.01
14.98
8.41
3.17
7.85
9.48
1.01
-5.86
17.5
1.51
-5.97
-1.83
-0.52
-4.34

> <PUBCHEM_SHAPE_SELFOVERLAP>
1846.708

> <PUBCHEM_SHAPE_VOLUME>
447.1

> <PUBCHEM_COORDINATE_TYPE>
2
5
10

$$$$
