129845343
  -OEChem-03052615073D

 45 48  0     1  0  0  0  0  0999 V2000
   -0.0356    4.4823   -2.4373 Cl  0  0  0  0  0  0  0  0  0  0  0  0
    0.5680   -1.0546   -1.3867 O   0  0  0  0  0  0  0  0  0  0  0  0
    2.8066    0.3007    1.8442 O   0  0  0  0  0  0  0  0  0  0  0  0
   -2.7542   -1.8426   -0.4135 O   0  0  0  0  0  0  0  0  0  0  0  0
   -0.8721   -3.1237   -0.8047 O   0  0  0  0  0  0  0  0  0  0  0  0
    0.8486    1.1184    2.7291 O   0  0  0  0  0  0  0  0  0  0  0  0
   -2.8269    1.4363    1.7367 O   0  0  0  0  0  0  0  0  0  0  0  0
   -0.7130    0.1374    0.3219 C   0  0  1  0  0  0  0  0  0  0  0  0
   -0.7755   -0.7233   -0.9637 C   0  0  2  0  0  0  0  0  0  0  0  0
    0.7337    0.0329    0.6364 C   0  0  0  0  0  0  0  0  0  0  0  0
    1.3553   -0.6199   -0.3360 C   0  0  0  0  0  0  0  0  0  0  0  0
   -1.1315    1.5439    0.0458 C   0  0  0  0  0  0  0  0  0  0  0  0
    2.7807   -0.8623   -0.3098 C   0  0  0  0  0  0  0  0  0  0  0  0
   -1.4423   -2.0440   -0.7252 C   0  0  0  0  0  0  0  0  0  0  0  0
    1.4287    0.5355    1.8219 C   0  0  0  0  0  0  0  0  0  0  0  0
    3.4819   -0.3845    0.8010 C   0  0  0  0  0  0  0  0  0  0  0  0
   -2.1714    2.1322    0.7659 C   0  0  0  0  0  0  0  0  0  0  0  0
   -0.4710    2.2706   -0.9448 C   0  0  0  0  0  0  0  0  0  0  0  0
    3.4830   -1.5331   -1.3121 C   0  0  0  0  0  0  0  0  0  0  0  0
   -2.5506    3.4469    0.4953 C   0  0  0  0  0  0  0  0  0  0  0  0
    4.8574   -0.5593    0.9321 C   0  0  0  0  0  0  0  0  0  0  0  0
   -0.8502    3.5853   -1.2155 C   0  0  0  0  0  0  0  0  0  0  0  0
   -1.8899    4.1736   -0.4953 C   0  0  0  0  0  0  0  0  0  0  0  0
    4.8643   -1.7151   -1.1922 C   0  0  0  0  0  0  0  0  0  0  0  0
   -3.5148   -3.0279   -0.1590 C   0  0  0  0  0  0  0  0  0  0  0  0
    5.5487   -1.2298   -0.0744 C   0  0  0  0  0  0  0  0  0  0  0  0
   -4.9459   -2.6325    0.1711 C   0  0  0  0  0  0  0  0  0  0  0  0
   -5.8121   -3.8433    0.4685 C   0  0  0  0  0  0  0  0  0  0  0  0
   -1.2981   -0.3136    1.1308 H   0  0  0  0  0  0  0  0  0  0  0  0
   -1.2843   -0.2461   -1.8103 H   0  0  0  0  0  0  0  0  0  0  0  0
    0.3389    1.8300   -1.5206 H   0  0  0  0  0  0  0  0  0  0  0  0
    2.9744   -1.9198   -2.1912 H   0  0  0  0  0  0  0  0  0  0  0  0
   -3.3589    3.9176    1.0485 H   0  0  0  0  0  0  0  0  0  0  0  0
    5.3876   -0.1824    1.8010 H   0  0  0  0  0  0  0  0  0  0  0  0
   -2.1961    5.1972   -0.6953 H   0  0  0  0  0  0  0  0  0  0  0  0
    5.4094   -2.2374   -1.9736 H   0  0  0  0  0  0  0  0  0  0  0  0
   -3.0688   -3.5682    0.6843 H   0  0  0  0  0  0  0  0  0  0  0  0
   -3.4959   -3.6680   -1.0489 H   0  0  0  0  0  0  0  0  0  0  0  0
    6.6217   -1.3766    0.0090 H   0  0  0  0  0  0  0  0  0  0  0  0
   -4.9500   -1.9515    1.0306 H   0  0  0  0  0  0  0  0  0  0  0  0
   -5.3724   -2.0648   -0.6645 H   0  0  0  0  0  0  0  0  0  0  0  0
   -3.5144    2.0041    2.1250 H   0  0  0  0  0  0  0  0  0  0  0  0
   -5.4241   -4.4022    1.3261 H   0  0  0  0  0  0  0  0  0  0  0  0
   -6.8345   -3.5301    0.7018 H   0  0  0  0  0  0  0  0  0  0  0  0
   -5.8517   -4.5182   -0.3924 H   0  0  0  0  0  0  0  0  0  0  0  0
  1 22  1  0  0  0  0
  2  9  1  0  0  0  0
  2 11  1  0  0  0  0
  3 15  1  0  0  0  0
  3 16  1  0  0  0  0
  4 14  1  0  0  0  0
  4 25  1  0  0  0  0
  5 14  2  0  0  0  0
  6 15  2  0  0  0  0
  7 17  1  0  0  0  0
  7 42  1  0  0  0  0
  8  9  1  0  0  0  0
  8 10  1  0  0  0  0
  8 12  1  0  0  0  0
  8 29  1  0  0  0  0
  9 14  1  0  0  0  0
  9 30  1  0  0  0  0
 10 11  2  0  0  0  0
 10 15  1  0  0  0  0
 11 13  1  0  0  0  0
 12 17  2  0  0  0  0
 12 18  1  0  0  0  0
 13 16  1  0  0  0  0
 13 19  2  0  0  0  0
 16 21  2  0  0  0  0
 17 20  1  0  0  0  0
 18 22  2  0  0  0  0
 18 31  1  0  0  0  0
 19 24  1  0  0  0  0
 19 32  1  0  0  0  0
 20 23  2  0  0  0  0
 20 33  1  0  0  0  0
 21 26  1  0  0  0  0
 21 34  1  0  0  0  0
 22 23  1  0  0  0  0
 23 35  1  0  0  0  0
 24 26  2  0  0  0  0
 24 36  1  0  0  0  0
 25 27  1  0  0  0  0
 25 37  1  0  0  0  0
 25 38  1  0  0  0  0
 26 39  1  0  0  0  0
 27 28  1  0  0  0  0
 27 40  1  0  0  0  0
 27 41  1  0  0  0  0
 28 43  1  0  0  0  0
 28 44  1  0  0  0  0
 28 45  1  0  0  0  0
M  END
> <PUBCHEM_COMPOUND_CID>
129845343

> <PUBCHEM_CONFORMER_RMSD>
0.8

> <PUBCHEM_CONFORMER_DIVERSEORDER>
1
4
8
17
18
5
20
27
22
24
10
19
23
14
21
12
11
13
26
15
29
16
7
25
28
6
9
3
2

> <PUBCHEM_MMFF94_PARTIAL_CHARGES>
34
1 -0.18
10 -0.12
11 0.05
12 -0.14
13 0.03
14 0.66
15 0.71
16 0.08
17 0.08
18 -0.15
19 -0.15
2 -0.36
20 -0.15
21 -0.15
22 0.18
23 -0.15
24 -0.15
25 0.28
26 -0.15
3 -0.23
31 0.15
32 0.15
33 0.15
34 0.15
35 0.15
36 0.15
39 0.15
4 -0.43
42 0.45
5 -0.57
6 -0.57
7 -0.53
8 0.28
9 0.34

> <PUBCHEM_EFFECTIVE_ROTOR_COUNT>
5.6

> <PUBCHEM_PHARMACOPHORE_FEATURES>
9
1 2 acceptor
1 28 hydrophobe
1 5 acceptor
1 6 acceptor
1 7 donor
5 2 8 9 10 11 rings
6 12 17 18 20 22 23 rings
6 13 16 19 21 24 26 rings
6 3 10 11 13 15 16 rings

> <PUBCHEM_HEAVY_ATOM_COUNT>
28

> <PUBCHEM_ATOM_DEF_STEREO_COUNT>
2

> <PUBCHEM_ATOM_UDEF_STEREO_COUNT>
0

> <PUBCHEM_BOND_DEF_STEREO_COUNT>
0

> <PUBCHEM_BOND_UDEF_STEREO_COUNT>
0

> <PUBCHEM_ISOTOPIC_ATOM_COUNT>
0

> <PUBCHEM_COMPONENT_COUNT>
1

> <PUBCHEM_CACTVS_TAUTO_COUNT>
20

> <PUBCHEM_CONFORMER_ID>
07BD485F00000001

> <PUBCHEM_MMFF94_ENERGY>
74.9305

> <PUBCHEM_FEATURE_SELFOVERLAP>
45.799

> <PUBCHEM_SHAPE_FINGERPRINT>
10165383 225 17910401580232142192
105312 117 18051408475238400772
10688039 33 18340488958008419979
10764073 3 17488764280401721099
11833330 49 18407758148768168478
12160290 23 17981007922147664541
12730499 353 17621601610129275801
12788726 201 18261964032586829974
13004483 165 18339636857903028447
13540713 4 17988640736843602510
13681431 1 17833245881524940285
14022347 108 18262509428687335027
14341114 328 16518809121460675132
14400156 96 17485638583998618275
14675019 173 18335709373057663369
14713325 29 18338796698070516006
14955137 171 17546156871346898112
15219462 58 17904999817549961994
17357779 13 18057862771322232695
1813 80 18264486354973042907
20600515 1 17829290860748032511
20739085 24 17982446302168369779
21033648 29 17845359098698423267
21120745 212 18336840761242218164
21639891 77 18200587000117041034
21756936 100 17242471434302639428
22182313 1 17631431450624320698
3729539 64 17190677671660667830
3759504 43 18125999360824405404
4058900 60 17408253464549232281
44802255 64 17975718107941912758
469060 322 18335995211141346603
5104073 3 17988355980549048466
513202 73 18337404737640524058
550186 7 17246423009672022948
633830 44 17127317296091971656
6442390 28 17907016179999139133
7399639 24 17984964133068480224
81228 2 18340189865149175087
9841814 1 17753590636707237355
9925002 15 18263101992487579357

> <PUBCHEM_SHAPE_MULTIPOLES>
542.88
9.06
5.64
1.81
3.63
4.36
0.48
-11.74
0.87
-9.24
-2.7
0.88
1.22
0.4

> <PUBCHEM_SHAPE_SELFOVERLAP>
1189.01

> <PUBCHEM_SHAPE_VOLUME>
294.8

> <PUBCHEM_COORDINATE_TYPE>
2
5
10

$$$$
