101456951
  -OEChem-02172602463D

 70 72  0     1  0  0  0  0  0999 V2000
    1.4409    0.4577    1.3314 O   0  0  0  0  0  0  0  0  0  0  0  0
   -1.7852   -2.7075    1.3518 O   0  0  0  0  0  0  0  0  0  0  0  0
   -0.0569    2.7454    1.3001 O   0  0  0  0  0  0  0  0  0  0  0  0
   -3.1533   -1.1575    0.3264 O   0  0  0  0  0  0  0  0  0  0  0  0
   -3.0213    2.9102    1.5794 O   0  0  0  0  0  0  0  0  0  0  0  0
   -2.5466    0.9447   -3.5499 O   0  0  0  0  0  0  0  0  0  0  0  0
    0.0309    0.3421    1.1759 C   0  0  1  0  0  0  0  0  0  0  0  0
   -0.5536   -0.2635    2.4587 C   0  0  0  0  0  0  0  0  0  0  0  0
    2.1151    0.3019    0.0909 C   0  0  0  0  0  0  0  0  0  0  0  0
   -2.0441   -0.6100    2.3980 C   0  0  0  0  0  0  0  0  0  0  0  0
   -2.0258   -3.6356    0.2892 C   0  0  0  0  0  0  0  0  0  0  0  0
   -0.5333    1.7159    0.8234 C   0  0  0  0  0  0  0  0  0  0  0  0
    3.3517    1.1758    0.0577 C   0  0  0  0  0  0  0  0  0  0  0  0
    2.4136   -1.1544   -0.2085 C   0  0  0  0  0  0  0  0  0  0  0  0
   -2.4150   -1.5036    1.2399 C   0  0  0  0  0  0  0  0  0  0  0  0
   -1.6973    1.8270   -0.1022 C   0  0  0  0  0  0  0  0  0  0  0  0
   -1.2321   -4.9034    0.5973 C   0  0  0  0  0  0  0  0  0  0  0  0
   -3.5226   -3.9380    0.2371 C   0  0  0  0  0  0  0  0  0  0  0  0
   -1.5506   -3.0087   -1.0208 C   0  0  0  0  0  0  0  0  0  0  0  0
    3.8122    1.6878   -1.1554 C   0  0  0  0  0  0  0  0  0  0  0  0
    2.4725   -1.5975   -1.5298 C   0  0  0  0  0  0  0  0  0  0  0  0
    4.0300    1.4689    1.2406 C   0  0  0  0  0  0  0  0  0  0  0  0
    2.6297   -2.0509    0.8380 C   0  0  0  0  0  0  0  0  0  0  0  0
   -2.8895    2.4190    0.3150 C   0  0  0  0  0  0  0  0  0  0  0  0
   -1.5821    1.3310   -1.4008 C   0  0  0  0  0  0  0  0  0  0  0  0
    4.9509    2.4930   -1.1854 C   0  0  0  0  0  0  0  0  0  0  0  0
    2.7475   -2.9371   -1.8047 C   0  0  0  0  0  0  0  0  0  0  0  0
    5.1686    2.2742    1.2108 C   0  0  0  0  0  0  0  0  0  0  0  0
    2.9051   -3.3904    0.5632 C   0  0  0  0  0  0  0  0  0  0  0  0
   -2.6589    1.4271   -2.2822 C   0  0  0  0  0  0  0  0  0  0  0  0
   -3.9664    2.5149   -0.5663 C   0  0  0  0  0  0  0  0  0  0  0  0
    5.6291    2.7861   -0.0024 C   0  0  0  0  0  0  0  0  0  0  0  0
    2.9637   -3.8335   -0.7582 C   0  0  0  0  0  0  0  0  0  0  0  0
   -3.8511    2.0189   -1.8649 C   0  0  0  0  0  0  0  0  0  0  0  0
   -4.2758    3.4980    1.9179 C   0  0  0  0  0  0  0  0  0  0  0  0
   -1.2998    0.3521   -3.9109 C   0  0  0  0  0  0  0  0  0  0  0  0
   -0.1878   -0.3528    0.3571 H   0  0  0  0  0  0  0  0  0  0  0  0
   -0.3867    0.4275    3.2950 H   0  0  0  0  0  0  0  0  0  0  0  0
    0.0165   -1.1677    2.7090 H   0  0  0  0  0  0  0  0  0  0  0  0
    1.4648    0.6864   -0.7068 H   0  0  0  0  0  0  0  0  0  0  0  0
   -2.3500   -1.1127    3.3232 H   0  0  0  0  0  0  0  0  0  0  0  0
   -2.6479    0.2998    2.3389 H   0  0  0  0  0  0  0  0  0  0  0  0
   -1.3644   -5.6659   -0.1771 H   0  0  0  0  0  0  0  0  0  0  0  0
   -0.1629   -4.6801    0.6847 H   0  0  0  0  0  0  0  0  0  0  0  0
   -1.5387   -5.3294    1.5595 H   0  0  0  0  0  0  0  0  0  0  0  0
   -3.7130   -4.8246   -0.3794 H   0  0  0  0  0  0  0  0  0  0  0  0
   -4.1312   -3.1398   -0.1953 H   0  0  0  0  0  0  0  0  0  0  0  0
   -3.9172   -4.1355    1.2406 H   0  0  0  0  0  0  0  0  0  0  0  0
   -1.4665   -3.7727   -1.8028 H   0  0  0  0  0  0  0  0  0  0  0  0
   -2.2177   -2.2438   -1.4261 H   0  0  0  0  0  0  0  0  0  0  0  0
   -0.5658   -2.5452   -0.8988 H   0  0  0  0  0  0  0  0  0  0  0  0
    3.2929    1.4724   -2.0852 H   0  0  0  0  0  0  0  0  0  0  0  0
    2.3002   -0.9127   -2.3556 H   0  0  0  0  0  0  0  0  0  0  0  0
    3.6984    1.0741    2.1970 H   0  0  0  0  0  0  0  0  0  0  0  0
    2.5984   -1.7277    1.8747 H   0  0  0  0  0  0  0  0  0  0  0  0
   -0.6340    0.8869   -1.6810 H   0  0  0  0  0  0  0  0  0  0  0  0
    5.3089    2.8923   -2.1298 H   0  0  0  0  0  0  0  0  0  0  0  0
    2.7912   -3.2826   -2.8334 H   0  0  0  0  0  0  0  0  0  0  0  0
    5.6982    2.5006    2.1315 H   0  0  0  0  0  0  0  0  0  0  0  0
    3.0745   -4.0884    1.3778 H   0  0  0  0  0  0  0  0  0  0  0  0
   -4.9224    2.9604   -0.3142 H   0  0  0  0  0  0  0  0  0  0  0  0
    6.5158    3.4127   -0.0257 H   0  0  0  0  0  0  0  0  0  0  0  0
    3.1770   -4.8767   -0.9720 H   0  0  0  0  0  0  0  0  0  0  0  0
   -4.6927    2.0958   -2.5480 H   0  0  0  0  0  0  0  0  0  0  0  0
   -4.4827    4.3865    1.3117 H   0  0  0  0  0  0  0  0  0  0  0  0
   -5.0890    2.7652    1.8781 H   0  0  0  0  0  0  0  0  0  0  0  0
   -4.2031    3.8338    2.9576 H   0  0  0  0  0  0  0  0  0  0  0  0
   -1.3889    0.0203   -4.9505 H   0  0  0  0  0  0  0  0  0  0  0  0
   -1.0871   -0.5383   -3.3092 H   0  0  0  0  0  0  0  0  0  0  0  0
   -0.4827    1.0808   -3.8773 H   0  0  0  0  0  0  0  0  0  0  0  0
  1  7  1  0  0  0  0
  1  9  1  0  0  0  0
  2 11  1  0  0  0  0
  2 15  1  0  0  0  0
  3 12  2  0  0  0  0
  4 15  2  0  0  0  0
  5 24  1  0  0  0  0
  5 35  1  0  0  0  0
  6 30  1  0  0  0  0
  6 36  1  0  0  0  0
  7  8  1  0  0  0  0
  7 12  1  0  0  0  0
  7 37  1  0  0  0  0
  8 10  1  0  0  0  0
  8 38  1  0  0  0  0
  8 39  1  0  0  0  0
  9 13  1  0  0  0  0
  9 14  1  0  0  0  0
  9 40  1  0  0  0  0
 10 15  1  0  0  0  0
 10 41  1  0  0  0  0
 10 42  1  0  0  0  0
 11 17  1  0  0  0  0
 11 18  1  0  0  0  0
 11 19  1  0  0  0  0
 12 16  1  0  0  0  0
 13 20  2  0  0  0  0
 13 22  1  0  0  0  0
 14 21  2  0  0  0  0
 14 23  1  0  0  0  0
 16 24  2  0  0  0  0
 16 25  1  0  0  0  0
 17 43  1  0  0  0  0
 17 44  1  0  0  0  0
 17 45  1  0  0  0  0
 18 46  1  0  0  0  0
 18 47  1  0  0  0  0
 18 48  1  0  0  0  0
 19 49  1  0  0  0  0
 19 50  1  0  0  0  0
 19 51  1  0  0  0  0
 20 26  1  0  0  0  0
 20 52  1  0  0  0  0
 21 27  1  0  0  0  0
 21 53  1  0  0  0  0
 22 28  2  0  0  0  0
 22 54  1  0  0  0  0
 23 29  2  0  0  0  0
 23 55  1  0  0  0  0
 24 31  1  0  0  0  0
 25 30  2  0  0  0  0
 25 56  1  0  0  0  0
 26 32  2  0  0  0  0
 26 57  1  0  0  0  0
 27 33  2  0  0  0  0
 27 58  1  0  0  0  0
 28 32  1  0  0  0  0
 28 59  1  0  0  0  0
 29 33  1  0  0  0  0
 29 60  1  0  0  0  0
 30 34  1  0  0  0  0
 31 34  2  0  0  0  0
 31 61  1  0  0  0  0
 32 62  1  0  0  0  0
 33 63  1  0  0  0  0
 34 64  1  0  0  0  0
 35 65  1  0  0  0  0
 35 66  1  0  0  0  0
 35 67  1  0  0  0  0
 36 68  1  0  0  0  0
 36 69  1  0  0  0  0
 36 70  1  0  0  0  0
M  END
> <PUBCHEM_COMPOUND_CID>
101456951

> <PUBCHEM_CONFORMER_RMSD>
1.2

> <PUBCHEM_CONFORMER_DIVERSEORDER>
1
82
128
126
102
158
58
113
24
120
182
17
57
86
12
31
96
177
72
51
176
157
127
162
47
70
175
73
23
30
21
62
189
147
53
75
8
143
81
10
83
169
121
99
60
44
80
129
93
45
110
136
145
119
64
105
139
114
54
180
89
69
117
94
22
48
155
76
164
146
172
132
78
106
123
56
160
35
19
26
151
111
36
88
181
50
63
39
134
138
71
183
100
52
87
104
25
5
74
6
43
150
38
68
103
85
107
42
79
108
163
11
149
92
135
29
170
188
118
95
159
2
168
46
27
91
186
153
116
67
137
77
144
16
142
33
61
154
9
101
190
112
179
161
167
3
131
122
173
98
125
90
133
59
166
178
32
140
124
141
152
165
40
115
65
187
148
109
174
41
97
18
7
184
37
28
156
55
13
84
49
15
14
4
171
130
185
20
34
66

> <PUBCHEM_MMFF94_PARTIAL_CHARGES>
45
1 -0.56
10 0.06
11 0.28
12 0.42
13 -0.14
14 -0.14
15 0.66
16 0.09
2 -0.43
20 -0.15
21 -0.15
22 -0.15
23 -0.15
24 0.08
25 -0.15
26 -0.15
27 -0.15
28 -0.15
29 -0.15
3 -0.57
30 0.08
31 -0.15
32 -0.15
33 -0.15
34 -0.15
35 0.28
36 0.28
4 -0.57
5 -0.36
52 0.15
53 0.15
54 0.15
55 0.15
56 0.15
57 0.15
58 0.15
59 0.15
6 -0.36
60 0.15
61 0.15
62 0.15
63 0.15
64 0.15
7 0.34
9 0.57

> <PUBCHEM_EFFECTIVE_ROTOR_COUNT>
13

> <PUBCHEM_PHARMACOPHORE_FEATURES>
9
1 1 acceptor
1 3 acceptor
1 4 acceptor
1 5 acceptor
1 6 acceptor
4 11 17 18 19 hydrophobe
6 13 20 22 26 28 32 rings
6 14 21 23 27 29 33 rings
6 16 24 25 30 31 34 rings

> <PUBCHEM_HEAVY_ATOM_COUNT>
36

> <PUBCHEM_ATOM_DEF_STEREO_COUNT>
1

> <PUBCHEM_ATOM_UDEF_STEREO_COUNT>
0

> <PUBCHEM_BOND_DEF_STEREO_COUNT>
0

> <PUBCHEM_BOND_UDEF_STEREO_COUNT>
0

> <PUBCHEM_ISOTOPIC_ATOM_COUNT>
0

> <PUBCHEM_COMPONENT_COUNT>
1

> <PUBCHEM_CACTVS_TAUTO_COUNT>
2

> <PUBCHEM_CONFORMER_ID>
060C1C3700000001

> <PUBCHEM_MMFF94_ENERGY>
120.1037

> <PUBCHEM_FEATURE_SELFOVERLAP>
45.68

> <PUBCHEM_SHAPE_FINGERPRINT>
10032420 55 18120079839534226602
10256941 240 18190718990500317676
10369192 42 18118990172309973268
10930396 42 17329967601735056016
11578080 2 18263666016477840012
12156800 1 15365234789823622597
12608794 3 18048300164261277640
12788726 201 18117262860600329427
13149001 5 18118412735135885106
13383661 66 16698351995638048454
14068700 675 17409656888390004647
14400156 162 10227040915987628476
19309040 13 18272380736818380868
19319366 153 18055910988207884249
20764821 26 18339638936677729795
20775438 99 18270661096379309295
21033648 144 18261095405938472100
23559900 14 18268711615572120210
25223398 141 18193544795924791784
27425 322 18198905816890262821
3493558 16 15288438331299071566
354706 35 18269255984932932607
469060 322 18046349905369020206

> <PUBCHEM_SHAPE_MULTIPOLES>
705.65
9.27
6.15
2.78
8.06
5.94
2.09
-7.46
0.22
-1.78
-0.77
-2.25
-1.03
1.08

> <PUBCHEM_SHAPE_SELFOVERLAP>
1495.015

> <PUBCHEM_SHAPE_VOLUME>
394.5

> <PUBCHEM_COORDINATE_TYPE>
2
5
10

$$$$
