101140030
  -OEChem-02172602443D

 32 32  0     0  0  0  0  0  0999 V2000
   -0.3934   -0.1441   -0.0129 C   0  0  0  0  0  0  0  0  0  0  0  0
    1.3682    2.1398    0.2601 C   0  0  0  0  0  0  0  0  0  0  0  0
   -0.1221    2.3630    0.0227 C   0  0  0  0  0  0  0  0  0  0  0  0
    1.8550    0.9213   -0.5072 C   0  0  0  0  0  0  0  0  0  0  0  0
   -0.9522    1.0914    0.0347 C   0  0  0  0  0  0  0  0  0  0  0  0
   -1.2048   -1.4188   -0.0489 C   0  0  0  0  0  0  0  0  0  0  0  0
    1.0718   -0.3009   -0.0886 C   0  0  0  0  0  0  0  0  0  0  0  0
   -2.4332    1.3688    0.1119 C   0  0  0  0  0  0  0  0  0  0  0  0
   -2.0461   -1.5312    1.2133 C   0  0  0  0  0  0  0  0  0  0  0  0
   -2.0717   -1.4590   -1.2992 C   0  0  0  0  0  0  0  0  0  0  0  0
    1.7251   -1.4407    0.1966 C   0  0  0  0  0  0  0  0  0  0  0  0
    3.2035   -1.5896    0.1174 C   0  0  0  0  0  0  0  0  0  0  0  0
    1.9283    3.0308   -0.0461 H   0  0  0  0  0  0  0  0  0  0  0  0
    1.5538    2.0017    1.3336 H   0  0  0  0  0  0  0  0  0  0  0  0
   -0.2637    2.8528   -0.9493 H   0  0  0  0  0  0  0  0  0  0  0  0
   -0.4883    3.0587    0.7874 H   0  0  0  0  0  0  0  0  0  0  0  0
    2.9314    0.8371   -0.3332 H   0  0  0  0  0  0  0  0  0  0  0  0
    1.7227    1.0806   -1.5853 H   0  0  0  0  0  0  0  0  0  0  0  0
   -0.5939   -2.3204   -0.1124 H   0  0  0  0  0  0  0  0  0  0  0  0
   -2.6300    2.0612    0.9393 H   0  0  0  0  0  0  0  0  0  0  0  0
   -3.0924    0.5268    0.2809 H   0  0  0  0  0  0  0  0  0  0  0  0
   -2.7593    1.8587   -0.8124 H   0  0  0  0  0  0  0  0  0  0  0  0
   -2.0010   -2.5664    1.5765 H   0  0  0  0  0  0  0  0  0  0  0  0
   -1.6847   -0.9087    2.0395 H   0  0  0  0  0  0  0  0  0  0  0  0
   -3.1111   -1.3372    1.0552 H   0  0  0  0  0  0  0  0  0  0  0  0
   -1.4548   -1.3630   -2.2009 H   0  0  0  0  0  0  0  0  0  0  0  0
   -2.5798   -2.4290   -1.3646 H   0  0  0  0  0  0  0  0  0  0  0  0
   -2.8531   -0.7007   -1.3584 H   0  0  0  0  0  0  0  0  0  0  0  0
    1.2203   -2.3227    0.5734 H   0  0  0  0  0  0  0  0  0  0  0  0
    3.6142   -1.1970   -0.8178 H   0  0  0  0  0  0  0  0  0  0  0  0
    3.4627   -2.6541    0.1434 H   0  0  0  0  0  0  0  0  0  0  0  0
    3.6925   -1.1135    0.9726 H   0  0  0  0  0  0  0  0  0  0  0  0
  1  5  2  0  0  0  0
  1  6  1  0  0  0  0
  1  7  1  0  0  0  0
  2  3  1  0  0  0  0
  2  4  1  0  0  0  0
  2 13  1  0  0  0  0
  2 14  1  0  0  0  0
  3  5  1  0  0  0  0
  3 15  1  0  0  0  0
  3 16  1  0  0  0  0
  4  7  1  0  0  0  0
  4 17  1  0  0  0  0
  4 18  1  0  0  0  0
  5  8  1  0  0  0  0
  6  9  1  0  0  0  0
  6 10  1  0  0  0  0
  6 19  1  0  0  0  0
  7 11  2  0  0  0  0
  8 20  1  0  0  0  0
  8 21  1  0  0  0  0
  8 22  1  0  0  0  0
  9 23  1  0  0  0  0
  9 24  1  0  0  0  0
  9 25  1  0  0  0  0
 10 26  1  0  0  0  0
 10 27  1  0  0  0  0
 10 28  1  0  0  0  0
 11 12  1  0  0  0  0
 11 29  1  0  0  0  0
 12 30  1  0  0  0  0
 12 31  1  0  0  0  0
 12 32  1  0  0  0  0
M  END
> <PUBCHEM_COMPOUND_CID>
101140030

> <PUBCHEM_CONFORMER_RMSD>
0.4

> <PUBCHEM_CONFORMER_DIVERSEORDER>
1
2

> <PUBCHEM_MMFF94_PARTIAL_CHARGES>
10
1 -0.14
11 -0.29
12 0.14
29 0.15
3 0.14
4 0.14
5 -0.28
6 0.14
7 -0.14
8 0.14

> <PUBCHEM_EFFECTIVE_ROTOR_COUNT>
1.6

> <PUBCHEM_PHARMACOPHORE_FEATURES>
3
1 12 hydrophobe
3 6 9 10 hydrophobe
6 1 2 3 4 5 7 rings

> <PUBCHEM_HEAVY_ATOM_COUNT>
12

> <PUBCHEM_ATOM_DEF_STEREO_COUNT>
0

> <PUBCHEM_ATOM_UDEF_STEREO_COUNT>
0

> <PUBCHEM_BOND_DEF_STEREO_COUNT>
1

> <PUBCHEM_BOND_UDEF_STEREO_COUNT>
0

> <PUBCHEM_ISOTOPIC_ATOM_COUNT>
0

> <PUBCHEM_COMPONENT_COUNT>
1

> <PUBCHEM_CACTVS_TAUTO_COUNT>
1

> <PUBCHEM_CONFORMER_ID>
0607463E00000001

> <PUBCHEM_MMFF94_ENERGY>
26.9831

> <PUBCHEM_FEATURE_SELFOVERLAP>
15.223

> <PUBCHEM_SHAPE_FINGERPRINT>
11680986 33 18410573998136904849
12423570 1 17985544442651892511
12524768 44 18270686350612390198
13024252 1 17751647545793487279
14251711 518 18270406112570650895
14817 1 17977691734822195463
15076042 46 17615123287475475410
161256 15 18195545897758437485
16945 1 18050568744111255020
193761 8 18410574019595936344
20082192 1 17488762175456185679
20511035 2 18412548703803565549
20645476 183 17319046856482764502
20871998 184 18127130779695872550
21501502 16 18411417336350477581
2334 1 18410576231677842284
23388829 49 18053921112531311560
23402539 116 17910937063847885902
23419403 2 16682236298705569056
23552423 10 18264494055780735588
241688 4 18410283684043490152
2748010 2 18411136961075253356
53812654 25 18269551654633734724
66348 1 18338799042927194724
81228 2 18121777232116155210

> <PUBCHEM_SHAPE_MULTIPOLES>
246.95
3.67
2.72
0.91
1.14
0.92
-0.04
-1.62
0.05
0.13
0.15
-0.49
-0.37
-0.15

> <PUBCHEM_SHAPE_SELFOVERLAP>
489.973

> <PUBCHEM_SHAPE_VOLUME>
145

> <PUBCHEM_COORDINATE_TYPE>
2
5
10

$$$$
