14144342
  -OEChem-02172602533D

 38 39  0     0  0  0  0  0  0999 V2000
    6.4125   -0.2313    0.1667 F   0  0  0  0  0  0  0  0  0  0  0  0
   -2.4477   -2.8825    0.1249 O   0  0  0  0  0  0  0  0  0  0  0  0
   -3.7027   -0.9931   -0.2086 O   0  0  0  0  0  0  0  0  0  0  0  0
   -3.0307    3.5603    1.1550 O   0  0  0  0  0  0  0  0  0  0  0  0
    0.1165    0.8581   -0.2927 N   0  0  0  0  0  0  0  0  0  0  0  0
   -2.1249    1.5348   -0.4969 N   0  0  0  0  0  0  0  0  0  0  0  0
   -1.8241    2.8661   -0.7064 N   0  0  0  0  0  0  0  0  0  0  0  0
    0.8470   -0.2843   -0.0922 C   0  0  0  0  0  0  0  0  0  0  0  0
   -1.2191    0.5519   -0.3125 C   0  0  0  0  0  0  0  0  0  0  0  0
   -1.3434   -0.8067   -0.1224 C   0  0  0  0  0  0  0  0  0  0  0  0
   -0.0364   -1.3357    0.0168 C   0  0  0  0  0  0  0  0  0  0  0  0
    2.2879   -0.2700   -0.0248 C   0  0  0  0  0  0  0  0  0  0  0  0
   -2.5859   -1.5238   -0.0784 C   0  0  0  0  0  0  0  0  0  0  0  0
    3.0159   -1.3849   -0.4401 C   0  0  0  0  0  0  0  0  0  0  0  0
    2.9532    0.8582    0.4551 C   0  0  0  0  0  0  0  0  0  0  0  0
    4.4091   -1.3718   -0.3753 C   0  0  0  0  0  0  0  0  0  0  0  0
    4.3465    0.8714    0.5199 C   0  0  0  0  0  0  0  0  0  0  0  0
    5.0745   -0.2437    0.1046 C   0  0  0  0  0  0  0  0  0  0  0  0
   -3.6496   -3.6594    0.1797 C   0  0  0  0  0  0  0  0  0  0  0  0
   -2.3262    3.7992    0.1770 C   0  0  0  0  0  0  0  0  0  0  0  0
   -3.2878   -5.1117    0.4072 C   0  0  0  0  0  0  0  0  0  0  0  0
   -1.8844    5.1986   -0.1567 C   0  0  0  0  0  0  0  0  0  0  0  0
    0.4912    1.7882   -0.4209 H   0  0  0  0  0  0  0  0  0  0  0  0
    0.2284   -2.3716    0.1838 H   0  0  0  0  0  0  0  0  0  0  0  0
   -3.1203    1.3310   -0.5270 H   0  0  0  0  0  0  0  0  0  0  0  0
    2.5241   -2.2745   -0.8256 H   0  0  0  0  0  0  0  0  0  0  0  0
    2.4161    1.7386    0.7990 H   0  0  0  0  0  0  0  0  0  0  0  0
    4.9766   -2.2390   -0.7000 H   0  0  0  0  0  0  0  0  0  0  0  0
    4.8651    1.7483    0.8962 H   0  0  0  0  0  0  0  0  0  0  0  0
   -1.2544    3.0763   -1.5189 H   0  0  0  0  0  0  0  0  0  0  0  0
   -4.2774   -3.2998    1.0021 H   0  0  0  0  0  0  0  0  0  0  0  0
   -4.1928   -3.5556   -0.7659 H   0  0  0  0  0  0  0  0  0  0  0  0
   -4.1848   -5.7355    0.4545 H   0  0  0  0  0  0  0  0  0  0  0  0
   -2.6435   -5.4790   -0.3985 H   0  0  0  0  0  0  0  0  0  0  0  0
   -2.7267   -5.2274    1.3404 H   0  0  0  0  0  0  0  0  0  0  0  0
   -0.9295    5.4005    0.3359 H   0  0  0  0  0  0  0  0  0  0  0  0
   -1.7680    5.3279   -1.2365 H   0  0  0  0  0  0  0  0  0  0  0  0
   -2.6348    5.9111    0.1973 H   0  0  0  0  0  0  0  0  0  0  0  0
  1 18  1  0  0  0  0
  2 13  1  0  0  0  0
  2 19  1  0  0  0  0
  3 13  2  0  0  0  0
  4 20  2  0  0  0  0
  5  8  1  0  0  0  0
  5  9  1  0  0  0  0
  5 23  1  0  0  0  0
  6  7  1  0  0  0  0
  6  9  1  0  0  0  0
  6 25  1  0  0  0  0
  7 20  1  0  0  0  0
  7 30  1  0  0  0  0
  8 11  2  0  0  0  0
  8 12  1  0  0  0  0
  9 10  2  0  0  0  0
 10 11  1  0  0  0  0
 10 13  1  0  0  0  0
 11 24  1  0  0  0  0
 12 14  2  0  0  0  0
 12 15  1  0  0  0  0
 14 16  1  0  0  0  0
 14 26  1  0  0  0  0
 15 17  2  0  0  0  0
 15 27  1  0  0  0  0
 16 18  2  0  0  0  0
 16 28  1  0  0  0  0
 17 18  1  0  0  0  0
 17 29  1  0  0  0  0
 19 21  1  0  0  0  0
 19 31  1  0  0  0  0
 19 32  1  0  0  0  0
 20 22  1  0  0  0  0
 21 33  1  0  0  0  0
 21 34  1  0  0  0  0
 21 35  1  0  0  0  0
 22 36  1  0  0  0  0
 22 37  1  0  0  0  0
 22 38  1  0  0  0  0
M  END
> <PUBCHEM_COMPOUND_CID>
14144342

> <PUBCHEM_CONFORMER_RMSD>
0.8

> <PUBCHEM_CONFORMER_DIVERSEORDER>
1
33
76
30
71
73
63
54
59
3
34
22
56
74
37
4
58
17
47
43
14
32
9
20
50
16
19
75
49
23
35
5
67
11
12
15
45
53
27
61
13
72
25
42
60
52
7
68
70
29
28
48
44
6
2
55
57
31
62
24
8
66
26
46
36
38
51
64
21
69
41
18
39
10
40
65

> <PUBCHEM_MMFF94_PARTIAL_CHARGES>
29
1 -0.19
10 -0.09
11 -0.15
12 0.05
13 0.81
14 -0.15
15 -0.15
16 -0.15
17 -0.15
18 0.19
19 0.28
2 -0.43
20 0.57
22 0.06
23 0.27
24 0.15
25 0.4
26 0.15
27 0.15
28 0.15
29 0.15
3 -0.57
30 0.37
4 -0.57
5 0.03
6 -0.5
7 -0.41
8 -0.2
9 -0.07

> <PUBCHEM_EFFECTIVE_ROTOR_COUNT>
7

> <PUBCHEM_PHARMACOPHORE_FEATURES>
8
1 3 acceptor
1 4 acceptor
1 5 cation
1 5 donor
1 6 donor
1 7 donor
5 5 8 9 10 11 rings
6 12 14 15 16 17 18 rings

> <PUBCHEM_HEAVY_ATOM_COUNT>
22

> <PUBCHEM_ATOM_DEF_STEREO_COUNT>
0

> <PUBCHEM_ATOM_UDEF_STEREO_COUNT>
0

> <PUBCHEM_BOND_DEF_STEREO_COUNT>
0

> <PUBCHEM_BOND_UDEF_STEREO_COUNT>
0

> <PUBCHEM_ISOTOPIC_ATOM_COUNT>
0

> <PUBCHEM_COMPONENT_COUNT>
1

> <PUBCHEM_CACTVS_TAUTO_COUNT>
10

> <PUBCHEM_CONFORMER_ID>
00D7D35600000001

> <PUBCHEM_MMFF94_ENERGY>
36.524

> <PUBCHEM_FEATURE_SELFOVERLAP>
42.148

> <PUBCHEM_SHAPE_FINGERPRINT>
10411042 1 18193838373512791495
11014199 57 18336829792328540060
11036077 51 18193550073980311995
11045515 52 18043244837435188277
11056379 131 18410022030784274118
12107183 9 17830443987323308498
12173636 292 18266173929264885213
12293681 160 18194935519346557693
12390115 104 18127140666621293817
12403259 226 18269832172259999992
12549972 3 17845352402617049114
12788726 201 18260821596997616339
13140716 1 18266462181926679395
138480 1 16105012090390753909
13955234 65 17113827847645211331
14178342 30 18335690616814376930
14347424 109 17399820670833760851
14508225 48 18269259326828561989
14790565 3 17834115238650586861
15042514 8 18409733997455734119
15230672 131 17904492805662788110
16087824 20 18410009911261913669
17980427 26 17402882333151644989
20238998 120 18268428117618287833
20286276 3 18339648850253552734
20510252 161 18413103940064243129
21049683 271 17467639633816365901
21065198 57 18339359665752159582
21304303 172 18271530892429974011
21426921 1 18410292510565202142
21796203 349 17469357027861266746
22182937 141 18270963419006078312
23402539 116 18188764067500644630
23557571 272 18412260653236946422
23558518 356 18261398819222437082
23559900 14 18410565223956445358
23845131 108 17904770977656121537
283562 15 18335416889373508635
3091708 16 9275148585231591121
4409770 3 18261666013859831943
5104073 3 18339070494420882634
59755656 520 18194117417426957357
6442390 28 18123198896430099433
7399639 24 18056466477913303840
77188 2 18122063375690713485
7808743 9 18337390414610179400
81228 2 18259707804498020457
9709674 26 18342176622879755806

> <PUBCHEM_SHAPE_MULTIPOLES>
412.92
9.76
6.35
0.73
14.26
4.32
0.05
-5.68
0.93
-13.07
0.75
-0.07
0.2
0.5

> <PUBCHEM_SHAPE_SELFOVERLAP>
876.407

> <PUBCHEM_SHAPE_VOLUME>
232.3

> <PUBCHEM_COORDINATE_TYPE>
2
5
10

$$$$
