132489957
  -OEChem-03052615063D

 64 65  0     1  0  0  0  0  0999 V2000
   -4.6965   -2.8091    1.7174 O   0  0  0  0  0  0  0  0  0  0  0  0
   -3.6482    2.9742    0.3341 O   0  0  0  0  0  0  0  0  0  0  0  0
    7.7729   -0.6088   -1.1017 O   0  0  0  0  0  0  0  0  0  0  0  0
    7.3579   -1.0704    1.1235 O   0  0  0  0  0  0  0  0  0  0  0  0
   -2.1623   -0.8238    0.2724 C   0  0  2  0  0  0  0  0  0  0  0  0
   -3.5571   -0.7990    0.9518 C   0  0  1  0  0  0  0  0  0  0  0  0
   -1.3243    0.4874    0.3888 C   0  0  2  0  0  0  0  0  0  0  0  0
   -2.3954   -1.2172   -1.1742 C   0  0  0  0  0  0  0  0  0  0  0  0
   -2.9211   -2.6122   -1.3573 C   0  0  0  0  0  0  0  0  0  0  0  0
   -4.2874   -2.7200   -0.6655 C   0  0  2  0  0  0  0  0  0  0  0  0
   -4.2060   -2.1896    0.7734 C   0  0  0  0  0  0  0  0  0  0  0  0
   -1.5781    1.4882   -0.7387 C   0  0  0  0  0  0  0  0  0  0  0  0
   -2.2701   -0.3429   -2.1843 C   0  0  0  0  0  0  0  0  0  0  0  0
   -1.9881    1.0661   -1.9562 C   0  0  0  0  0  0  0  0  0  0  0  0
   -3.4996   -0.4377    2.4376 C   0  0  0  0  0  0  0  0  0  0  0  0
    0.1487    0.1518    0.4495 C   0  0  0  0  0  0  0  0  0  0  0  0
   -4.7953   -4.1583   -0.7106 C   0  0  0  0  0  0  0  0  0  0  0  0
   -1.3269    2.9281   -0.3694 C   0  0  0  0  0  0  0  0  0  0  0  0
   -2.1984    1.9357   -3.1651 C   0  0  0  0  0  0  0  0  0  0  0  0
    1.0145    0.4323    1.4422 C   0  0  0  0  0  0  0  0  0  0  0  0
   -2.5806    3.5664    0.1818 C   0  0  0  0  0  0  0  0  0  0  0  0
    0.5829    1.1949    2.6643 C   0  0  0  0  0  0  0  0  0  0  0  0
    2.4240    0.0759    1.4293 C   0  0  0  0  0  0  0  0  0  0  0  0
   -2.4400    5.0164    0.5693 C   0  0  0  0  0  0  0  0  0  0  0  0
    3.2719    0.1325    0.3800 C   0  0  0  0  0  0  0  0  0  0  0  0
    2.8586    0.5676   -1.0041 C   0  0  0  0  0  0  0  0  0  0  0  0
    4.6663   -0.2673    0.5819 C   0  0  0  0  0  0  0  0  0  0  0  0
    5.6326   -0.2706   -0.3488 C   0  0  0  0  0  0  0  0  0  0  0  0
    7.0020   -0.7016    0.0155 C   0  0  0  0  0  0  0  0  0  0  0  0
    9.1431   -0.9889   -0.9369 C   0  0  0  0  0  0  0  0  0  0  0  0
   -1.5863   -1.6326    0.7486 H   0  0  0  0  0  0  0  0  0  0  0  0
   -4.2175   -0.0776    0.4526 H   0  0  0  0  0  0  0  0  0  0  0  0
   -1.6133    0.9833    1.3169 H   0  0  0  0  0  0  0  0  0  0  0  0
   -3.0214   -2.8646   -2.4198 H   0  0  0  0  0  0  0  0  0  0  0  0
   -2.2063   -3.3250   -0.9270 H   0  0  0  0  0  0  0  0  0  0  0  0
   -5.0146   -2.0835   -1.1872 H   0  0  0  0  0  0  0  0  0  0  0  0
   -2.4841   -0.6541   -3.2030 H   0  0  0  0  0  0  0  0  0  0  0  0
   -2.7748   -1.0632    2.9697 H   0  0  0  0  0  0  0  0  0  0  0  0
   -4.4749   -0.5809    2.9161 H   0  0  0  0  0  0  0  0  0  0  0  0
   -3.2304    0.6110    2.5902 H   0  0  0  0  0  0  0  0  0  0  0  0
    0.5015   -0.4350   -0.3979 H   0  0  0  0  0  0  0  0  0  0  0  0
   -4.1309   -4.8325   -0.1588 H   0  0  0  0  0  0  0  0  0  0  0  0
   -4.8649   -4.5156   -1.7433 H   0  0  0  0  0  0  0  0  0  0  0  0
   -5.7913   -4.2351   -0.2612 H   0  0  0  0  0  0  0  0  0  0  0  0
   -0.9878    3.5094   -1.2319 H   0  0  0  0  0  0  0  0  0  0  0  0
   -0.5356    3.0053    0.3822 H   0  0  0  0  0  0  0  0  0  0  0  0
   -3.1979    1.7726   -3.5848 H   0  0  0  0  0  0  0  0  0  0  0  0
   -1.4583    1.6991   -3.9372 H   0  0  0  0  0  0  0  0  0  0  0  0
   -2.1237    3.0041   -2.9503 H   0  0  0  0  0  0  0  0  0  0  0  0
    0.4278    2.2519    2.4261 H   0  0  0  0  0  0  0  0  0  0  0  0
    1.3301    1.1512    3.4652 H   0  0  0  0  0  0  0  0  0  0  0  0
   -0.3384    0.7834    3.0897 H   0  0  0  0  0  0  0  0  0  0  0  0
    2.8045   -0.2524    2.3966 H   0  0  0  0  0  0  0  0  0  0  0  0
   -2.1464    5.6034   -0.3044 H   0  0  0  0  0  0  0  0  0  0  0  0
   -1.6916    5.1139    1.3596 H   0  0  0  0  0  0  0  0  0  0  0  0
   -3.3973    5.3931    0.9403 H   0  0  0  0  0  0  0  0  0  0  0  0
    3.6150    1.2214   -1.4530 H   0  0  0  0  0  0  0  0  0  0  0  0
    1.9515    1.1757   -1.0228 H   0  0  0  0  0  0  0  0  0  0  0  0
    2.7205   -0.3001   -1.6573 H   0  0  0  0  0  0  0  0  0  0  0  0
    4.9182   -0.5811    1.5942 H   0  0  0  0  0  0  0  0  0  0  0  0
    5.4611    0.0212   -1.3784 H   0  0  0  0  0  0  0  0  0  0  0  0
    9.6302   -0.3406   -0.2023 H   0  0  0  0  0  0  0  0  0  0  0  0
    9.6473   -0.8694   -1.8996 H   0  0  0  0  0  0  0  0  0  0  0  0
    9.2111   -2.0377   -0.6325 H   0  0  0  0  0  0  0  0  0  0  0  0
  1 11  2  0  0  0  0
  2 21  2  0  0  0  0
  3 29  1  0  0  0  0
  3 30  1  0  0  0  0
  4 29  2  0  0  0  0
  5  6  1  0  0  0  0
  5  7  1  0  0  0  0
  5  8  1  0  0  0  0
  5 31  1  0  0  0  0
  6 11  1  0  0  0  0
  6 15  1  0  0  0  0
  6 32  1  0  0  0  0
  7 12  1  0  0  0  0
  7 16  1  0  0  0  0
  7 33  1  0  0  0  0
  8  9  1  0  0  0  0
  8 13  2  0  0  0  0
  9 10  1  0  0  0  0
  9 34  1  0  0  0  0
  9 35  1  0  0  0  0
 10 11  1  0  0  0  0
 10 17  1  0  0  0  0
 10 36  1  0  0  0  0
 12 14  2  0  0  0  0
 12 18  1  0  0  0  0
 13 14  1  0  0  0  0
 13 37  1  0  0  0  0
 14 19  1  0  0  0  0
 15 38  1  0  0  0  0
 15 39  1  0  0  0  0
 15 40  1  0  0  0  0
 16 20  2  0  0  0  0
 16 41  1  0  0  0  0
 17 42  1  0  0  0  0
 17 43  1  0  0  0  0
 17 44  1  0  0  0  0
 18 21  1  0  0  0  0
 18 45  1  0  0  0  0
 18 46  1  0  0  0  0
 19 47  1  0  0  0  0
 19 48  1  0  0  0  0
 19 49  1  0  0  0  0
 20 22  1  0  0  0  0
 20 23  1  0  0  0  0
 21 24  1  0  0  0  0
 22 50  1  0  0  0  0
 22 51  1  0  0  0  0
 22 52  1  0  0  0  0
 23 25  2  0  0  0  0
 23 53  1  0  0  0  0
 24 54  1  0  0  0  0
 24 55  1  0  0  0  0
 24 56  1  0  0  0  0
 25 26  1  0  0  0  0
 25 27  1  0  0  0  0
 26 57  1  0  0  0  0
 26 58  1  0  0  0  0
 26 59  1  0  0  0  0
 27 28  2  0  0  0  0
 27 60  1  0  0  0  0
 28 29  1  0  0  0  0
 28 61  1  0  0  0  0
 30 62  1  0  0  0  0
 30 63  1  0  0  0  0
 30 64  1  0  0  0  0
M  END
> <PUBCHEM_COMPOUND_CID>
132489957

> <PUBCHEM_CONFORMER_RMSD>
1

> <PUBCHEM_CONFORMER_DIVERSEORDER>
1
4
21
22
9
15
26
7
28
13
30
18
10
2
32
27
14
19
29
31
3
12
5
24
23
8
20
17
16
25
11
6

> <PUBCHEM_MMFF94_PARTIAL_CHARGES>
33
1 -0.57
10 0.06
11 0.45
12 -0.28
13 -0.15
14 -0.14
16 -0.29
18 0.2
19 0.14
2 -0.57
20 -0.14
21 0.45
22 0.14
23 -0.15
24 0.06
25 -0.14
26 0.14
27 -0.15
28 -0.14
29 0.71
3 -0.43
30 0.28
37 0.15
4 -0.57
41 0.15
5 0.14
53 0.15
6 0.06
60 0.15
61 0.15
7 0.28
8 -0.28
9 0.14

> <PUBCHEM_EFFECTIVE_ROTOR_COUNT>
7.8

> <PUBCHEM_PHARMACOPHORE_FEATURES>
7
1 1 acceptor
1 2 acceptor
1 22 hydrophobe
1 26 hydrophobe
1 4 acceptor
6 5 6 8 9 10 11 rings
6 5 7 8 12 13 14 rings

> <PUBCHEM_HEAVY_ATOM_COUNT>
30

> <PUBCHEM_ATOM_DEF_STEREO_COUNT>
4

> <PUBCHEM_ATOM_UDEF_STEREO_COUNT>
0

> <PUBCHEM_BOND_DEF_STEREO_COUNT>
3

> <PUBCHEM_BOND_UDEF_STEREO_COUNT>
0

> <PUBCHEM_ISOTOPIC_ATOM_COUNT>
0

> <PUBCHEM_COMPONENT_COUNT>
1

> <PUBCHEM_CACTVS_TAUTO_COUNT>
1001

> <PUBCHEM_CONFORMER_ID>
07E5A2E500000001

> <PUBCHEM_MMFF94_ENERGY>
70.1642

> <PUBCHEM_FEATURE_SELFOVERLAP>
35.561

> <PUBCHEM_SHAPE_FINGERPRINT>
10076449 9 18410568492674276383
10764073 3 17129895771397219983
11477941 20 17821727256548313268
11607047 141 17760092109878575635
12082328 90 18409452445828638190
12616971 3 15554445228506907776
131258 43 17977961394322716797
13673619 4 18271526502303569290
13690498 29 18341891909523460158
13782708 43 18342172285437365034
13941219 33 15769784529024766550
14347332 77 18408317805099092310
14556957 393 17022627485278711782
14713325 29 18410573942228346897
15131766 46 16627128900518297392
15183329 4 17095523968888176242
15513586 35 12461852239736191930
15876981 60 18261683635478184157
16114785 44 18057606465313318693
17093844 174 10087633789804935166
1813 80 18126853926483436189
18927931 339 18411980260887477662
20101258 96 18412821412873766777
20505436 4 17824826633123314664
20771845 65 18054511572235879051
21756936 100 18195241122595468721
23081809 10 17676205733514126282
3552219 110 17822872968780939813
3610482 184 17823718390733958124
4409770 3 18342176610126670777
474113 269 17059202821804018791
484985 159 18410566284834512335
497634 4 17894632534990277292
57527573 199 16341484335903256313
58260988 587 17406842778926694097
6700243 42 17842592671497542804
6786 2 17908706125460867257

> <PUBCHEM_SHAPE_MULTIPOLES>
593.91
16.36
4.41
2.31
54.8
3.14
-0.31
-13.58
-2.02
-10.21
-0.27
-1.77
0.42
0.6

> <PUBCHEM_SHAPE_SELFOVERLAP>
1221.533

> <PUBCHEM_SHAPE_VOLUME>
340.7

> <PUBCHEM_COORDINATE_TYPE>
2
5
10

$$$$
