133554346
  -OEChem-03052615073D

 39 40  0     1  0  0  0  0  0999 V2000
   -1.1538    1.6685    0.1271 O   0  0  0  0  0  0  0  0  0  0  0  0
   -1.8225   -2.9834    0.5060 O   0  0  0  0  0  0  0  0  0  0  0  0
   -3.3540    2.3480    0.3383 O   0  0  0  0  0  0  0  0  0  0  0  0
    2.4322    2.3295    1.5243 O   0  0  0  0  0  0  0  0  0  0  0  0
    1.4129   -1.1632   -0.4050 C   0  0  1  0  0  0  0  0  0  0  0  0
    0.9134    0.2642    0.0314 C   0  0  2  0  0  0  0  0  0  0  0  0
   -0.5686    0.4398   -0.3258 C   0  0  1  0  0  0  0  0  0  0  0  0
   -1.4114   -0.6223    0.3518 C   0  0  2  0  0  0  0  0  0  0  0  0
    0.4393   -2.2617    0.1177 C   0  0  0  0  0  0  0  0  0  0  0  0
   -1.0497   -2.0004   -0.1772 C   0  0  1  0  0  0  0  0  0  0  0  0
   -2.7385    0.0094    0.1290 C   0  0  0  0  0  0  0  0  0  0  0  0
    1.5432   -1.3016   -1.9376 C   0  0  0  0  0  0  0  0  0  0  0  0
    1.7158    1.3945   -0.5541 C   0  0  0  0  0  0  0  0  0  0  0  0
    2.7788   -1.4427    0.1855 C   0  0  0  0  0  0  0  0  0  0  0  0
   -2.5132    1.4785    0.2034 C   0  0  0  0  0  0  0  0  0  0  0  0
    2.8847    1.8852    0.2524 C   0  0  0  0  0  0  0  0  0  0  0  0
   -3.9326   -0.5215   -0.1353 C   0  0  0  0  0  0  0  0  0  0  0  0
    1.3891    1.9525   -1.7297 C   0  0  0  0  0  0  0  0  0  0  0  0
    3.0348   -1.4731    1.4978 C   0  0  0  0  0  0  0  0  0  0  0  0
    0.9638    0.3516    1.1257 H   0  0  0  0  0  0  0  0  0  0  0  0
   -0.7275    0.3812   -1.4116 H   0  0  0  0  0  0  0  0  0  0  0  0
   -1.2542   -0.6081    1.4418 H   0  0  0  0  0  0  0  0  0  0  0  0
    0.5339   -2.3837    1.2058 H   0  0  0  0  0  0  0  0  0  0  0  0
    0.7142   -3.2444   -0.2909 H   0  0  0  0  0  0  0  0  0  0  0  0
   -1.2615   -2.0863   -1.2488 H   0  0  0  0  0  0  0  0  0  0  0  0
    0.6051   -1.0812   -2.4555 H   0  0  0  0  0  0  0  0  0  0  0  0
    1.8226   -2.3261   -2.2154 H   0  0  0  0  0  0  0  0  0  0  0  0
    2.3182   -0.6474   -2.3522 H   0  0  0  0  0  0  0  0  0  0  0  0
    3.6091   -1.6329   -0.4912 H   0  0  0  0  0  0  0  0  0  0  0  0
   -1.5598   -3.8536    0.1603 H   0  0  0  0  0  0  0  0  0  0  0  0
    3.6387    1.1081    0.3909 H   0  0  0  0  0  0  0  0  0  0  0  0
    3.3783    2.7322   -0.2369 H   0  0  0  0  0  0  0  0  0  0  0  0
   -4.0666   -1.5951   -0.2039 H   0  0  0  0  0  0  0  0  0  0  0  0
   -4.8080    0.0998   -0.2916 H   0  0  0  0  0  0  0  0  0  0  0  0
    1.9791    2.7753   -2.1241 H   0  0  0  0  0  0  0  0  0  0  0  0
    0.5727    1.6299   -2.3612 H   0  0  0  0  0  0  0  0  0  0  0  0
    4.0399   -1.6804    1.8500 H   0  0  0  0  0  0  0  0  0  0  0  0
    2.2732   -1.2890    2.2464 H   0  0  0  0  0  0  0  0  0  0  0  0
    3.2145    2.6327    2.0159 H   0  0  0  0  0  0  0  0  0  0  0  0
  1  7  1  0  0  0  0
  1 15  1  0  0  0  0
  2 10  1  0  0  0  0
  2 30  1  0  0  0  0
  3 15  2  0  0  0  0
  4 16  1  0  0  0  0
  4 39  1  0  0  0  0
  5  6  1  0  0  0  0
  5  9  1  0  0  0  0
  5 12  1  0  0  0  0
  5 14  1  0  0  0  0
  6  7  1  0  0  0  0
  6 13  1  0  0  0  0
  6 20  1  0  0  0  0
  7  8  1  0  0  0  0
  7 21  1  0  0  0  0
  8 10  1  0  0  0  0
  8 11  1  0  0  0  0
  8 22  1  0  0  0  0
  9 10  1  0  0  0  0
  9 23  1  0  0  0  0
  9 24  1  0  0  0  0
 10 25  1  0  0  0  0
 11 15  1  0  0  0  0
 11 17  2  0  0  0  0
 12 26  1  0  0  0  0
 12 27  1  0  0  0  0
 12 28  1  0  0  0  0
 13 16  1  0  0  0  0
 13 18  2  0  0  0  0
 14 19  2  0  0  0  0
 14 29  1  0  0  0  0
 16 31  1  0  0  0  0
 16 32  1  0  0  0  0
 17 33  1  0  0  0  0
 17 34  1  0  0  0  0
 18 35  1  0  0  0  0
 18 36  1  0  0  0  0
 19 37  1  0  0  0  0
 19 38  1  0  0  0  0
M  END
> <PUBCHEM_COMPOUND_CID>
133554346

> <PUBCHEM_CONFORMER_RMSD>
0.6

> <PUBCHEM_CONFORMER_DIVERSEORDER>
1
9
11
8
3
6
4
7
5
10
2

> <PUBCHEM_MMFF94_PARTIAL_CHARGES>
26
1 -0.43
10 0.28
11 -0.12
13 -0.28
14 -0.29
15 0.71
16 0.42
17 -0.3
18 -0.3
19 -0.3
2 -0.68
29 0.15
3 -0.57
30 0.4
33 0.15
34 0.15
35 0.15
36 0.15
37 0.15
38 0.15
39 0.4
4 -0.68
5 0.14
6 0.14
7 0.28
8 0.14

> <PUBCHEM_EFFECTIVE_ROTOR_COUNT>
4

> <PUBCHEM_PHARMACOPHORE_FEATURES>
9
1 18 hydrophobe
1 19 hydrophobe
1 2 acceptor
1 2 donor
1 3 acceptor
1 4 acceptor
1 4 donor
5 1 7 8 11 15 rings
6 5 6 7 8 9 10 rings

> <PUBCHEM_HEAVY_ATOM_COUNT>
19

> <PUBCHEM_ATOM_DEF_STEREO_COUNT>
5

> <PUBCHEM_ATOM_UDEF_STEREO_COUNT>
0

> <PUBCHEM_BOND_DEF_STEREO_COUNT>
0

> <PUBCHEM_BOND_UDEF_STEREO_COUNT>
0

> <PUBCHEM_ISOTOPIC_ATOM_COUNT>
0

> <PUBCHEM_COMPONENT_COUNT>
1

> <PUBCHEM_CACTVS_TAUTO_COUNT>
1

> <PUBCHEM_CONFORMER_ID>
07F5E0AA00000001

> <PUBCHEM_MMFF94_ENERGY>
58.9863

> <PUBCHEM_FEATURE_SELFOVERLAP>
45.746

> <PUBCHEM_SHAPE_FINGERPRINT>
10967382 1 18337675312189755189
11578080 2 17169246201543914166
11680986 33 18335704987305684634
12011746 2 18337382739297354062
12251169 10 18337379492222950626
12382932 28 18195530521896798307
13132413 78 18264205816631278446
13140716 1 18338242544537210065
13172582 1 18191868920421815506
13380535 76 18340769359200615071
14178342 30 18190171472332534768
14181834 199 18410012117767211092
14223421 5 18340773757236498643
16945 1 18338806610733793583
17804303 29 18338798901530962050
1813 80 16662903401773143930
18186145 218 18336272245538390149
20511035 2 18412544344659537078
20559304 39 18334864861505999070
20600515 1 18193283996793706086
20671657 1 18260559943300316132
20691752 17 17603592906418757077
20905425 154 18196660802675784918
21501502 16 18411135844204297773
21524375 3 18128256881677142044
23184049 29 18336265729556387915
2334 1 18410302410533644541
23402539 116 18125150537969633966
23419403 2 16830016141877817710
23558518 356 18334019397763013225
23559900 14 18341336681652257524
2748010 2 18194700364917043639
350125 39 18337398149634834617
5104073 3 18410300199131675825
589210 1 18336552723576305062
5939293 188 18268710515628144044
7364860 26 18273220781007562028
90316 7 17680974220147453634

> <PUBCHEM_SHAPE_MULTIPOLES>
367.53
5.29
3.12
1.26
2.82
0.06
-0.3
-0.99
1.19
-0.39
0.3
-1.14
-0.13
-0.15

> <PUBCHEM_SHAPE_SELFOVERLAP>
771.881

> <PUBCHEM_SHAPE_VOLUME>
207.3

> <PUBCHEM_COORDINATE_TYPE>
2
5
10

$$$$
