134756435
  -OEChem-03052615083D

 73 77  0     1  0  0  0  0  0999 V2000
    4.1004    0.0276   -0.3533 O   0  0  0  0  0  0  0  0  0  0  0  0
   -5.3245    1.1057    0.3350 O   0  0  0  0  0  0  0  0  0  0  0  0
    2.8517   -1.1778    1.2060 O   0  0  0  0  0  0  0  0  0  0  0  0
    7.0067   -2.8722   -0.4604 O   0  0  0  0  0  0  0  0  0  0  0  0
    6.8667   -0.8981   -2.5675 O   0  0  0  0  0  0  0  0  0  0  0  0
   -4.7451   -1.0672   -0.4230 O   0  0  0  0  0  0  0  0  0  0  0  0
    4.3088   -3.5100    0.5368 O   0  0  0  0  0  0  0  0  0  0  0  0
   -9.0202   -0.5048   -0.6477 O   0  0  0  0  0  0  0  0  0  0  0  0
   -7.8701    1.6366   -2.2583 O   0  0  0  0  0  0  0  0  0  0  0  0
   -7.5578   -0.1153    1.6694 O   0  0  0  0  0  0  0  0  0  0  0  0
    5.9392    2.0302   -0.8490 O   0  0  0  0  0  0  0  0  0  0  0  0
   -0.3510    0.5008    0.4891 O   0  0  0  0  0  0  0  0  0  0  0  0
    1.0856   -3.2957    0.8444 O   0  0  0  0  0  0  0  0  0  0  0  0
   -1.2968   -4.2501    0.3460 O   0  0  0  0  0  0  0  0  0  0  0  0
    2.7254    4.4276   -1.0378 O   0  0  0  0  0  0  0  0  0  0  0  0
    4.0044    4.9640    1.3714 O   0  0  0  0  0  0  0  0  0  0  0  0
    5.7968   -2.2319   -0.8687 C   0  0  2  0  0  0  0  0  0  0  0  0
    6.1449   -0.8201   -1.3411 C   0  0  2  0  0  0  0  0  0  0  0  0
    4.8184   -2.1968    0.3054 C   0  0  1  0  0  0  0  0  0  0  0  0
    4.8765    0.0097   -1.5525 C   0  0  2  0  0  0  0  0  0  0  0  0
   -7.6249   -0.2335   -0.7501 C   0  0  1  0  0  0  0  0  0  0  0  0
   -7.3870    1.2614   -0.9711 C   0  0  1  0  0  0  0  0  0  0  0  0
    3.6381   -1.2688    0.0185 C   0  0  2  0  0  0  0  0  0  0  0  0
   -6.9351   -0.7099    0.5292 C   0  0  1  0  0  0  0  0  0  0  0  0
   -5.8871    1.5730   -0.8939 C   0  0  1  0  0  0  0  0  0  0  0  0
   -5.4621   -0.3044    0.5417 C   0  0  2  0  0  0  0  0  0  0  0  0
    5.2009    1.4561   -1.9122 C   0  0  0  0  0  0  0  0  0  0  0  0
   -5.6227    3.0741   -0.9729 C   0  0  0  0  0  0  0  0  0  0  0  0
    1.5242   -0.9692    0.9001 C   0  0  0  0  0  0  0  0  0  0  0  0
   -3.4324   -1.3380   -0.1416 C   0  0  0  0  0  0  0  0  0  0  0  0
   -0.7623   -1.8905    0.4297 C   0  0  0  0  0  0  0  0  0  0  0  0
    0.6519   -2.1567    0.7336 C   0  0  0  0  0  0  0  0  0  0  0  0
    0.9853    0.2561    0.7634 C   0  0  0  0  0  0  0  0  0  0  0  0
   -1.1913   -0.5696    0.3232 C   0  0  0  0  0  0  0  0  0  0  0  0
   -2.5281   -0.2908    0.0372 C   0  0  0  0  0  0  0  0  0  0  0  0
   -3.0014   -2.6608   -0.0345 C   0  0  0  0  0  0  0  0  0  0  0  0
   -1.6649   -2.9420    0.2516 C   0  0  0  0  0  0  0  0  0  0  0  0
    1.7753    1.4904    0.9199 C   0  0  0  0  0  0  0  0  0  0  0  0
    1.8816    2.3891   -0.1415 C   0  0  0  0  0  0  0  0  0  0  0  0
    2.4170    1.7598    2.1288 C   0  0  0  0  0  0  0  0  0  0  0  0
    2.6293    3.5574    0.0059 C   0  0  0  0  0  0  0  0  0  0  0  0
    3.1649    2.9279    2.2761 C   0  0  0  0  0  0  0  0  0  0  0  0
    3.2710    3.8268    1.2147 C   0  0  0  0  0  0  0  0  0  0  0  0
    5.3971   -2.8327   -1.6941 H   0  0  0  0  0  0  0  0  0  0  0  0
    6.8058   -0.3489   -0.6040 H   0  0  0  0  0  0  0  0  0  0  0  0
    5.3321   -1.8904    1.2244 H   0  0  0  0  0  0  0  0  0  0  0  0
    4.2726   -0.4078   -2.3690 H   0  0  0  0  0  0  0  0  0  0  0  0
   -7.2534   -0.7973   -1.6148 H   0  0  0  0  0  0  0  0  0  0  0  0
   -7.9486    1.8403   -0.2286 H   0  0  0  0  0  0  0  0  0  0  0  0
    3.0393   -1.6905   -0.8036 H   0  0  0  0  0  0  0  0  0  0  0  0
   -7.0485   -1.7963    0.6214 H   0  0  0  0  0  0  0  0  0  0  0  0
   -5.3551    1.1034   -1.7315 H   0  0  0  0  0  0  0  0  0  0  0  0
   -5.0601   -0.5056    1.5441 H   0  0  0  0  0  0  0  0  0  0  0  0
    4.2817    2.0344   -2.0398 H   0  0  0  0  0  0  0  0  0  0  0  0
    5.7890    1.5209   -2.8326 H   0  0  0  0  0  0  0  0  0  0  0  0
   -4.5488    3.2750   -0.8903 H   0  0  0  0  0  0  0  0  0  0  0  0
   -6.1046    3.5999   -0.1413 H   0  0  0  0  0  0  0  0  0  0  0  0
   -5.9827    3.4999   -1.9140 H   0  0  0  0  0  0  0  0  0  0  0  0
    7.3760   -2.3728    0.2877 H   0  0  0  0  0  0  0  0  0  0  0  0
    6.2889   -1.3134   -3.2304 H   0  0  0  0  0  0  0  0  0  0  0  0
    3.8426   -3.7986   -0.2664 H   0  0  0  0  0  0  0  0  0  0  0  0
   -9.1241   -1.4625   -0.5149 H   0  0  0  0  0  0  0  0  0  0  0  0
   -7.3813    1.1246   -2.9249 H   0  0  0  0  0  0  0  0  0  0  0  0
   -7.1347   -0.4862    2.4625 H   0  0  0  0  0  0  0  0  0  0  0  0
    6.1172    2.9552   -1.0901 H   0  0  0  0  0  0  0  0  0  0  0  0
   -2.8444    0.7434   -0.0603 H   0  0  0  0  0  0  0  0  0  0  0  0
   -3.7108   -3.4729   -0.1744 H   0  0  0  0  0  0  0  0  0  0  0  0
    1.3854    2.1791   -1.0868 H   0  0  0  0  0  0  0  0  0  0  0  0
    2.3407    1.0760    2.9707 H   0  0  0  0  0  0  0  0  0  0  0  0
   -0.3504   -4.3242    0.5420 H   0  0  0  0  0  0  0  0  0  0  0  0
    3.6587    3.1260    3.2236 H   0  0  0  0  0  0  0  0  0  0  0  0
    2.2228    4.0750   -1.7922 H   0  0  0  0  0  0  0  0  0  0  0  0
    4.3745    4.9809    2.2707 H   0  0  0  0  0  0  0  0  0  0  0  0
  1 20  1  0  0  0  0
  1 23  1  0  0  0  0
  2 25  1  0  0  0  0
  2 26  1  0  0  0  0
  3 23  1  0  0  0  0
  3 29  1  0  0  0  0
  4 17  1  0  0  0  0
  4 59  1  0  0  0  0
  5 18  1  0  0  0  0
  5 60  1  0  0  0  0
  6 26  1  0  0  0  0
  6 30  1  0  0  0  0
  7 19  1  0  0  0  0
  7 61  1  0  0  0  0
  8 21  1  0  0  0  0
  8 62  1  0  0  0  0
  9 22  1  0  0  0  0
  9 63  1  0  0  0  0
 10 24  1  0  0  0  0
 10 64  1  0  0  0  0
 11 27  1  0  0  0  0
 11 65  1  0  0  0  0
 12 33  1  0  0  0  0
 12 34  1  0  0  0  0
 13 32  2  0  0  0  0
 14 37  1  0  0  0  0
 14 70  1  0  0  0  0
 15 41  1  0  0  0  0
 15 72  1  0  0  0  0
 16 43  1  0  0  0  0
 16 73  1  0  0  0  0
 17 18  1  0  0  0  0
 17 19  1  0  0  0  0
 17 44  1  0  0  0  0
 18 20  1  0  0  0  0
 18 45  1  0  0  0  0
 19 23  1  0  0  0  0
 19 46  1  0  0  0  0
 20 27  1  0  0  0  0
 20 47  1  0  0  0  0
 21 22  1  0  0  0  0
 21 24  1  0  0  0  0
 21 48  1  0  0  0  0
 22 25  1  0  0  0  0
 22 49  1  0  0  0  0
 23 50  1  0  0  0  0
 24 26  1  0  0  0  0
 24 51  1  0  0  0  0
 25 28  1  0  0  0  0
 25 52  1  0  0  0  0
 26 53  1  0  0  0  0
 27 54  1  0  0  0  0
 27 55  1  0  0  0  0
 28 56  1  0  0  0  0
 28 57  1  0  0  0  0
 28 58  1  0  0  0  0
 29 32  1  0  0  0  0
 29 33  2  0  0  0  0
 30 35  1  0  0  0  0
 30 36  2  0  0  0  0
 31 32  1  0  0  0  0
 31 34  1  0  0  0  0
 31 37  2  0  0  0  0
 33 38  1  0  0  0  0
 34 35  2  0  0  0  0
 35 66  1  0  0  0  0
 36 37  1  0  0  0  0
 36 67  1  0  0  0  0
 38 39  2  0  0  0  0
 38 40  1  0  0  0  0
 39 41  1  0  0  0  0
 39 68  1  0  0  0  0
 40 42  2  0  0  0  0
 40 69  1  0  0  0  0
 41 43  2  0  0  0  0
 42 43  1  0  0  0  0
 42 71  1  0  0  0  0
M  END
> <PUBCHEM_COMPOUND_CID>
134756435

> <PUBCHEM_CONFORMER_RMSD>
1.2

> <PUBCHEM_CONFORMER_DIVERSEORDER>
1
34
123
7
51
88
117
77
126
71
40
114
62
145
87
128
153
60
92
138
102
132
85
147
93
35
152
97
116
143
120
136
151
99
12
15
108
110
39
61
133
36
66
25
148
84
124
48
4
65
22
98
100
52
55
135
96
89
127
70
118
86
94
56
140
38
141
33
109
69
54
18
149
83
46
121
119
90
68
74
106
130
82
125
81
134
44
32
72
150
103
20
53
3
21
19
29
11
112
139
78
67
59
45
42
79
49
142
76
6
37
47
91
2
30
63
41
129
107
113
80
43
131
75
101
16
9
24
8
64
14
13
50
57
137
122
104
144
5
27
28
23
17
111
95
154
58
10
146
31
73
105
26
115

> <PUBCHEM_MMFF94_PARTIAL_CHARGES>
57
1 -0.56
10 -0.68
11 -0.68
12 -0.16
13 -0.57
14 -0.53
15 -0.53
16 -0.53
17 0.28
18 0.28
19 0.28
2 -0.56
20 0.28
21 0.28
22 0.28
23 0.56
24 0.28
25 0.28
26 0.56
27 0.28
29 0.09
3 -0.36
30 0.08
31 0.09
32 0.47
33 0.05
34 0.08
35 -0.15
36 -0.15
37 0.08
38 0.03
39 -0.15
4 -0.68
40 -0.15
41 0.08
42 -0.15
43 0.08
5 -0.68
59 0.4
6 -0.36
60 0.4
61 0.4
62 0.4
63 0.4
64 0.4
65 0.4
66 0.15
67 0.15
68 0.15
69 0.15
7 -0.68
70 0.45
71 0.15
72 0.45
73 0.45
8 -0.68
9 -0.68

> <PUBCHEM_EFFECTIVE_ROTOR_COUNT>
8.4

> <PUBCHEM_PHARMACOPHORE_FEATURES>
28
1 1 acceptor
1 10 acceptor
1 10 donor
1 11 acceptor
1 11 donor
1 12 acceptor
1 13 acceptor
1 14 donor
1 15 donor
1 16 donor
1 2 acceptor
1 3 acceptor
1 4 acceptor
1 4 donor
1 5 acceptor
1 5 donor
1 6 acceptor
1 7 acceptor
1 7 donor
1 8 acceptor
1 8 donor
1 9 acceptor
1 9 donor
6 1 17 18 19 20 23 rings
6 12 29 31 32 33 34 rings
6 2 21 22 24 25 26 rings
6 30 31 34 35 36 37 rings
6 38 39 40 41 42 43 rings

> <PUBCHEM_HEAVY_ATOM_COUNT>
43

> <PUBCHEM_ATOM_DEF_STEREO_COUNT>
10

> <PUBCHEM_ATOM_UDEF_STEREO_COUNT>
0

> <PUBCHEM_BOND_DEF_STEREO_COUNT>
0

> <PUBCHEM_BOND_UDEF_STEREO_COUNT>
0

> <PUBCHEM_ISOTOPIC_ATOM_COUNT>
0

> <PUBCHEM_COMPONENT_COUNT>
1

> <PUBCHEM_CACTVS_TAUTO_COUNT>
68

> <PUBCHEM_CONFORMER_ID>
0808385300000001

> <PUBCHEM_MMFF94_ENERGY>
142.6884

> <PUBCHEM_FEATURE_SELFOVERLAP>
142.283

> <PUBCHEM_SHAPE_FINGERPRINT>
10050765 1 18268143348117558803
10675989 125 18268715090222456736
10816530 90 18335980943681644576
11093857 5 17606405607502925539
11456790 92 18040710356023038474
11720765 8 18201722881850217320
11828422 8 16842455037383030040
11991303 11 17774996943158931991
13383665 225 17828776375680664655
13540713 4 18194407929168132194
13944108 23 18047468929197018637
14068700 675 17988361460140828040
14068700 686 17620469550958950704
14849402 71 18410862023550574435
15064981 194 18343584054372797911
15183329 4 18201443553955798927
15439362 3 18196652011505523136
16090146 7 16916800599502777799
18365409 1 16841939087072268401
19053607 189 17833830847961879288
19611394 137 17532111521984840923
21133410 127 17970618817351416861
22311459 1 18340768148484853899
23559900 14 18270680986736606714
23576562 1 18335144245181738455
24771750 20 18338806735498543358
249057 3 18343022194302320462
3178227 256 18337681836535787595
4058900 60 18042128661572518851
4066623 53 18341897372754483568
484989 97 18263083232392020892
508180 173 18410300168354858464
5776283 40 18335145310317426234
6086070 43 18272090504450358811
6371380 46 18408036295393787723

> <PUBCHEM_SHAPE_MULTIPOLES>
791.01
21.78
5.21
1.69
35.53
2.97
0.23
1.57
10.49
-6.86
-1.14
-1.52
1.04
2.86

> <PUBCHEM_SHAPE_SELFOVERLAP>
1726.495

> <PUBCHEM_SHAPE_VOLUME>
422.1

> <PUBCHEM_COORDINATE_TYPE>
2
5
10

$$$$
