136126988
  -OEChem-03052615073D

 61 66  0     0  0  0  0  0  0999 V2000
    2.4849   -0.3231    0.0769 O   0  0  0  0  0  0  0  0  0  0  0  0
   -2.8060    0.1618    0.3046 O   0  0  0  0  0  0  0  0  0  0  0  0
    2.4423    2.1811   -2.6307 O   0  0  0  0  0  0  0  0  0  0  0  0
    1.4100    4.3172    0.2576 O   0  0  0  0  0  0  0  0  0  0  0  0
    4.9056    2.6875    3.0045 O   0  0  0  0  0  0  0  0  0  0  0  0
    5.4419    0.1240    2.8436 O   0  0  0  0  0  0  0  0  0  0  0  0
   -6.2474    1.2145   -1.8098 O   0  0  0  0  0  0  0  0  0  0  0  0
   -7.6532   -0.0173    0.1171 O   0  0  0  0  0  0  0  0  0  0  0  0
   -5.3481   -2.0284    3.7073 O   0  0  0  0  0  0  0  0  0  0  0  0
    1.9047   -6.2848   -1.9396 O   0  0  0  0  0  0  0  0  0  0  0  0
    1.9515    1.9755    0.1651 C   0  0  0  0  0  0  0  0  0  0  0  0
    0.9146    1.7576   -0.8236 C   0  0  0  0  0  0  0  0  0  0  0  0
    2.7388    0.9142    0.6124 C   0  0  0  0  0  0  0  0  0  0  0  0
    3.7330    1.1368    1.5636 C   0  0  0  0  0  0  0  0  0  0  0  0
   -1.3852    1.2225   -1.3348 C   0  0  0  0  0  0  0  0  0  0  0  0
   -0.3740    1.4354   -0.3979 C   0  0  0  0  0  0  0  0  0  0  0  0
    2.1623    3.2576    0.6732 C   0  0  0  0  0  0  0  0  0  0  0  0
    1.1919    1.8672   -2.1861 C   0  0  0  0  0  0  0  0  0  0  0  0
    3.9473    2.4190    2.0746 C   0  0  0  0  0  0  0  0  0  0  0  0
   -2.7485    0.8816   -0.8861 C   0  0  0  0  0  0  0  0  0  0  0  0
    3.1580    3.4787    1.6258 C   0  0  0  0  0  0  0  0  0  0  0  0
    4.5498    0.0003    2.0158 C   0  0  0  0  0  0  0  0  0  0  0  0
    3.2459   -1.3986    0.5087 C   0  0  0  0  0  0  0  0  0  0  0  0
   -1.1078    1.3322   -2.6975 C   0  0  0  0  0  0  0  0  0  0  0  0
    0.1807    1.6545   -3.1232 C   0  0  0  0  0  0  0  0  0  0  0  0
    4.2348   -1.3103    1.4124 C   0  0  0  0  0  0  0  0  0  0  0  0
   -5.2483    0.1414    0.0902 C   0  0  0  0  0  0  0  0  0  0  0  0
   -4.0399   -0.2233    0.8229 C   0  0  0  0  0  0  0  0  0  0  0  0
   -3.8573    1.2154   -1.5697 C   0  0  0  0  0  0  0  0  0  0  0  0
    2.8925   -2.6803   -0.1341 C   0  0  0  0  0  0  0  0  0  0  0  0
   -5.1569    0.8336   -1.0601 C   0  0  0  0  0  0  0  0  0  0  0  0
   -6.5792   -0.2725    0.6496 C   0  0  0  0  0  0  0  0  0  0  0  0
   -4.1070   -0.9143    1.9699 C   0  0  0  0  0  0  0  0  0  0  0  0
    2.4758   -3.7597    0.6452 C   0  0  0  0  0  0  0  0  0  0  0  0
    2.9769   -2.8121   -1.5201 C   0  0  0  0  0  0  0  0  0  0  0  0
   -5.3793   -1.3216    2.5226 C   0  0  0  0  0  0  0  0  0  0  0  0
   -6.5449   -1.0358    1.9281 C   0  0  0  0  0  0  0  0  0  0  0  0
    2.6234    2.2691   -4.0421 C   0  0  0  0  0  0  0  0  0  0  0  0
    2.1436   -4.9708    0.0383 C   0  0  0  0  0  0  0  0  0  0  0  0
    2.6446   -4.0233   -2.1270 C   0  0  0  0  0  0  0  0  0  0  0  0
    2.2281   -5.1026   -1.3478 C   0  0  0  0  0  0  0  0  0  0  0  0
   -0.5835    1.3598    0.6677 H   0  0  0  0  0  0  0  0  0  0  0  0
    3.3251    4.4769    2.0239 H   0  0  0  0  0  0  0  0  0  0  0  0
   -1.8656    1.1542   -3.4559 H   0  0  0  0  0  0  0  0  0  0  0  0
    0.3191    1.7170   -4.1969 H   0  0  0  0  0  0  0  0  0  0  0  0
    4.8251   -2.1642    1.7256 H   0  0  0  0  0  0  0  0  0  0  0  0
   -3.8349    1.7861   -2.4918 H   0  0  0  0  0  0  0  0  0  0  0  0
   -3.2049   -1.1831    2.5105 H   0  0  0  0  0  0  0  0  0  0  0  0
    1.7039    5.1197    0.7217 H   0  0  0  0  0  0  0  0  0  0  0  0
    2.3990   -3.6750    1.7265 H   0  0  0  0  0  0  0  0  0  0  0  0
    3.3013   -1.9809   -2.1416 H   0  0  0  0  0  0  0  0  0  0  0  0
   -7.4970   -1.3433    2.3467 H   0  0  0  0  0  0  0  0  0  0  0  0
    5.3855    1.8793    3.2416 H   0  0  0  0  0  0  0  0  0  0  0  0
    1.8188   -5.8078    0.6503 H   0  0  0  0  0  0  0  0  0  0  0  0
    2.7149   -4.1132   -3.2077 H   0  0  0  0  0  0  0  0  0  0  0  0
    2.4512    1.3053   -4.5333 H   0  0  0  0  0  0  0  0  0  0  0  0
    3.6735    2.5275   -4.2150 H   0  0  0  0  0  0  0  0  0  0  0  0
    2.0244    3.0759   -4.4781 H   0  0  0  0  0  0  0  0  0  0  0  0
   -7.0621    0.9093   -1.3810 H   0  0  0  0  0  0  0  0  0  0  0  0
   -6.2623   -2.2378    3.9654 H   0  0  0  0  0  0  0  0  0  0  0  0
    2.0204   -6.1977   -2.9014 H   0  0  0  0  0  0  0  0  0  0  0  0
  1 13  1  0  0  0  0
  1 23  1  0  0  0  0
  2 20  1  0  0  0  0
  2 28  1  0  0  0  0
  3 18  1  0  0  0  0
  3 38  1  0  0  0  0
  4 17  1  0  0  0  0
  4 49  1  0  0  0  0
  5 19  1  0  0  0  0
  5 53  1  0  0  0  0
  6 22  2  0  0  0  0
  7 31  1  0  0  0  0
  7 59  1  0  0  0  0
  8 32  2  0  0  0  0
  9 36  1  0  0  0  0
  9 60  1  0  0  0  0
 10 41  1  0  0  0  0
 10 61  1  0  0  0  0
 11 12  1  0  0  0  0
 11 13  1  0  0  0  0
 11 17  2  0  0  0  0
 12 16  1  0  0  0  0
 12 18  2  0  0  0  0
 13 14  2  0  0  0  0
 14 19  1  0  0  0  0
 14 22  1  0  0  0  0
 15 16  2  0  0  0  0
 15 20  1  0  0  0  0
 15 24  1  0  0  0  0
 16 42  1  0  0  0  0
 17 21  1  0  0  0  0
 18 25  1  0  0  0  0
 19 21  2  0  0  0  0
 20 29  2  0  0  0  0
 21 43  1  0  0  0  0
 22 26  1  0  0  0  0
 23 26  2  0  0  0  0
 23 30  1  0  0  0  0
 24 25  2  0  0  0  0
 24 44  1  0  0  0  0
 25 45  1  0  0  0  0
 26 46  1  0  0  0  0
 27 28  1  0  0  0  0
 27 31  2  0  0  0  0
 27 32  1  0  0  0  0
 28 33  2  0  0  0  0
 29 31  1  0  0  0  0
 29 47  1  0  0  0  0
 30 34  2  0  0  0  0
 30 35  1  0  0  0  0
 32 37  1  0  0  0  0
 33 36  1  0  0  0  0
 33 48  1  0  0  0  0
 34 39  1  0  0  0  0
 34 50  1  0  0  0  0
 35 40  2  0  0  0  0
 35 51  1  0  0  0  0
 36 37  2  0  0  0  0
 37 52  1  0  0  0  0
 38 56  1  0  0  0  0
 38 57  1  0  0  0  0
 38 58  1  0  0  0  0
 39 41  2  0  0  0  0
 39 54  1  0  0  0  0
 40 41  1  0  0  0  0
 40 55  1  0  0  0  0
M  END
> <PUBCHEM_COMPOUND_CID>
136126988

> <PUBCHEM_CONFORMER_RMSD>
0.8

> <PUBCHEM_CONFORMER_DIVERSEORDER>
4
27
23
14
19
15
21
28
20
9
2
16
18
24
12
10
17
25
13
22
26
11
7
1
8
3
6
5

> <PUBCHEM_MMFF94_PARTIAL_CHARGES>
56
1 -0.16
10 -0.53
13 0.08
14 0.09
15 0.03
16 -0.15
17 0.08
18 0.08
19 0.08
2 -0.15
20 0.05
21 -0.15
22 0.47
23 0.05
24 -0.15
25 -0.15
26 -0.14
27 0.01
28 0.08
29 -0.15
3 -0.36
30 0.03
31 0.08
32 0.54
33 -0.15
34 -0.15
35 -0.15
36 0.08
37 -0.14
38 0.28
39 -0.15
4 -0.53
40 -0.15
41 0.08
42 0.15
43 0.15
44 0.15
45 0.15
46 0.15
47 0.15
48 0.15
49 0.45
5 -0.53
50 0.15
51 0.15
52 0.15
53 0.45
54 0.15
55 0.15
59 0.45
6 -0.57
60 0.45
61 0.45
7 -0.53
8 -0.57
9 -0.53

> <PUBCHEM_EFFECTIVE_ROTOR_COUNT>
4

> <PUBCHEM_PHARMACOPHORE_FEATURES>
16
1 1 acceptor
1 10 donor
1 2 acceptor
1 3 acceptor
1 4 donor
1 5 donor
1 6 acceptor
1 7 donor
1 8 acceptor
1 9 donor
6 1 13 14 22 23 26 rings
6 11 13 14 17 19 21 rings
6 12 15 16 18 24 25 rings
6 2 20 27 28 29 31 rings
6 27 28 32 33 36 37 rings
6 30 34 35 39 40 41 rings

> <PUBCHEM_HEAVY_ATOM_COUNT>
41

> <PUBCHEM_ATOM_DEF_STEREO_COUNT>
0

> <PUBCHEM_ATOM_UDEF_STEREO_COUNT>
0

> <PUBCHEM_BOND_DEF_STEREO_COUNT>
0

> <PUBCHEM_BOND_UDEF_STEREO_COUNT>
0

> <PUBCHEM_ISOTOPIC_ATOM_COUNT>
0

> <PUBCHEM_COMPONENT_COUNT>
1

> <PUBCHEM_CACTVS_TAUTO_COUNT>
-1

> <PUBCHEM_CONFORMER_ID>
081D220C00000004

> <PUBCHEM_MMFF94_ENERGY>
144.2393

> <PUBCHEM_FEATURE_SELFOVERLAP>
81.258

> <PUBCHEM_SHAPE_FINGERPRINT>
10985338 15 17906471165892664116
11765517 15 16843897352584897847
12047536 79 17630887102048196937
12128747 34 18196357131514466453
12422481 6 18188757469987117003
12758862 65 18263915562773798170
14004853 49 18122913289314743325
15219462 58 18341615871633429645
19301679 30 17315652939867846707
19319366 153 17703493485194118314
1979834 28 18408885152508051371
20501277 246 18336271128251398250
21133410 38 18059561551553937647
22440779 20 17690022049777308916
23559900 14 17968099698935647653
23572383 38 18187356619813124379
3044373 233 18122346778976625163
3178227 256 18341600517957893720
394071 54 18131346384570424243
404807 14 17552354372518153359
4435113 14 18188769418865955743
50150288 127 16978969405013630140
563151 74 18201142343525287657
57527585 103 17185293363440428856
6608658 132 9018700675171850602
6823239 73 17676215666792442765
86090 222 18335427820007586139
9831232 110 18113905923522025071

> <PUBCHEM_SHAPE_MULTIPOLES>
785.07
14.45
6.23
3.68
29.99
9.36
-0.72
2.52
10.06
-10.61
-2.61
-1.41
-1.22
5.36

> <PUBCHEM_SHAPE_SELFOVERLAP>
1782.771

> <PUBCHEM_SHAPE_VOLUME>
406.2

> <PUBCHEM_COORDINATE_TYPE>
2
5
10

$$$$
