13861214
  -OEChem-03052615013D

 40 42  0     0  0  0  0  0  0999 V2000
   -6.7591    1.9849    0.1187 O   0  5  0  0  0  0  0  0  0  0  0  0
   -4.8676    3.0105   -0.3166 O   0  0  0  0  0  0  0  0  0  0  0  0
    1.6045   -2.3650    0.2781 N   0  0  0  0  0  0  0  0  0  0  0  0
    2.8816   -2.0971   -0.0430 N   0  0  0  0  0  0  0  0  0  0  0  0
   -0.6276   -1.6691   -0.1178 N   0  0  0  0  0  0  0  0  0  0  0  0
   -5.5159    1.9697   -0.0507 N   0  3  0  0  0  0  0  0  0  0  0  0
    3.9851   -0.4669   -1.4680 C   0  0  0  0  0  0  0  0  0  0  0  0
    2.7730   -1.0638   -0.8823 C   0  0  0  0  0  0  0  0  0  0  0  0
    4.4483    0.6333   -0.5329 C   0  0  0  0  0  0  0  0  0  0  0  0
    0.7125   -1.5407   -0.3280 C   0  0  0  0  0  0  0  0  0  0  0  0
    1.4369   -0.6749   -1.0954 C   0  0  0  0  0  0  0  0  0  0  0  0
    5.3360    0.3245    0.4812 C   0  0  0  0  0  0  0  0  0  0  0  0
    3.9722    1.9183   -0.7178 C   0  0  0  0  0  0  0  0  0  0  0  0
    1.3221   -3.4498    1.1901 C   0  0  0  0  0  0  0  0  0  0  0  0
   -2.7581   -0.5187   -0.0124 C   0  0  0  0  0  0  0  0  0  0  0  0
    5.7624    1.3364    1.3414 C   0  0  0  0  0  0  0  0  0  0  0  0
    4.3989    2.9301    0.1423 C   0  0  0  0  0  0  0  0  0  0  0  0
   -1.3176   -0.5639   -0.2068 C   0  0  0  0  0  0  0  0  0  0  0  0
    5.2939    2.6392    1.1719 C   0  0  0  0  0  0  0  0  0  0  0  0
   -3.4393    0.6936   -0.1228 C   0  0  0  0  0  0  0  0  0  0  0  0
   -3.4588   -1.6882    0.2831 C   0  0  0  0  0  0  0  0  0  0  0  0
   -4.8213    0.7363    0.0622 C   0  0  0  0  0  0  0  0  0  0  0  0
   -4.8405   -1.6455    0.4680 C   0  0  0  0  0  0  0  0  0  0  0  0
   -5.5218   -0.4333    0.3575 C   0  0  0  0  0  0  0  0  0  0  0  0
    3.7818   -0.0572   -2.4652 H   0  0  0  0  0  0  0  0  0  0  0  0
    4.7785   -1.2126   -1.6026 H   0  0  0  0  0  0  0  0  0  0  0  0
    1.0719    0.1196   -1.7305 H   0  0  0  0  0  0  0  0  0  0  0  0
    5.7070   -0.6867    0.6208 H   0  0  0  0  0  0  0  0  0  0  0  0
    3.2756    2.1548   -1.5167 H   0  0  0  0  0  0  0  0  0  0  0  0
    0.6598   -3.0808    1.9772 H   0  0  0  0  0  0  0  0  0  0  0  0
    0.8422   -4.2531    0.6259 H   0  0  0  0  0  0  0  0  0  0  0  0
    2.2552   -3.8077    1.6332 H   0  0  0  0  0  0  0  0  0  0  0  0
    6.4594    1.1100    2.1429 H   0  0  0  0  0  0  0  0  0  0  0  0
    4.0342    3.9446    0.0105 H   0  0  0  0  0  0  0  0  0  0  0  0
   -0.8364    0.4094   -0.4178 H   0  0  0  0  0  0  0  0  0  0  0  0
    5.6260    3.4270    1.8415 H   0  0  0  0  0  0  0  0  0  0  0  0
   -2.8750    1.5943   -0.3543 H   0  0  0  0  0  0  0  0  0  0  0  0
   -2.9547   -2.6465    0.3751 H   0  0  0  0  0  0  0  0  0  0  0  0
   -5.3859   -2.5561    0.6980 H   0  0  0  0  0  0  0  0  0  0  0  0
   -6.5984   -0.4383    0.5080 H   0  0  0  0  0  0  0  0  0  0  0  0
  1  6  1  0  0  0  0
  2  6  2  0  0  0  0
  3  4  1  0  0  0  0
  3 10  1  0  0  0  0
  3 14  1  0  0  0  0
  4  8  2  0  0  0  0
  5 10  1  0  0  0  0
  5 18  2  0  0  0  0
  6 22  1  0  0  0  0
  7  8  1  0  0  0  0
  7  9  1  0  0  0  0
  7 25  1  0  0  0  0
  7 26  1  0  0  0  0
  8 11  1  0  0  0  0
  9 12  2  0  0  0  0
  9 13  1  0  0  0  0
 10 11  2  0  0  0  0
 11 27  1  0  0  0  0
 12 16  1  0  0  0  0
 12 28  1  0  0  0  0
 13 17  2  0  0  0  0
 13 29  1  0  0  0  0
 14 30  1  0  0  0  0
 14 31  1  0  0  0  0
 14 32  1  0  0  0  0
 15 18  1  0  0  0  0
 15 20  2  0  0  0  0
 15 21  1  0  0  0  0
 16 19  2  0  0  0  0
 16 33  1  0  0  0  0
 17 19  1  0  0  0  0
 17 34  1  0  0  0  0
 18 35  1  0  0  0  0
 19 36  1  0  0  0  0
 20 22  1  0  0  0  0
 20 37  1  0  0  0  0
 21 23  2  0  0  0  0
 21 38  1  0  0  0  0
 22 24  2  0  0  0  0
 23 24  1  0  0  0  0
 23 39  1  0  0  0  0
 24 40  1  0  0  0  0
M  CHG  2   1  -1   6   1
M  END
> <PUBCHEM_COMPOUND_CID>
13861214

> <PUBCHEM_CONFORMER_RMSD>
0.8

> <PUBCHEM_CONFORMER_DIVERSEORDER>
4
35
14
18
21
16
37
34
32
19
2
23
17
36
30
22
25
12
5
6
15
11
9
29
24
8
26
1
13
10
28
7
20
33
31
27
3

> <PUBCHEM_MMFF94_PARTIAL_CHARGES>
35
1 -0.52
10 -0.03
11 -0.15
12 -0.15
13 -0.15
14 0.26
15 0.09
16 -0.15
17 -0.15
18 0.3
19 -0.15
2 -0.52
20 -0.15
21 -0.15
22 0.13
23 -0.15
24 -0.15
27 0.15
28 0.15
29 0.15
3 0.31
33 0.15
34 0.15
35 0.06
36 0.15
37 0.15
38 0.15
39 0.15
4 -0.71
40 0.15
5 -0.58
6 0.91
7 0.32
8 0.11
9 -0.14

> <PUBCHEM_EFFECTIVE_ROTOR_COUNT>
5

> <PUBCHEM_PHARMACOPHORE_FEATURES>
8
1 1 acceptor
1 1 anion
1 2 acceptor
1 4 acceptor
1 5 acceptor
5 3 4 8 10 11 rings
6 15 20 21 22 23 24 rings
6 9 12 13 16 17 19 rings

> <PUBCHEM_HEAVY_ATOM_COUNT>
24

> <PUBCHEM_ATOM_DEF_STEREO_COUNT>
0

> <PUBCHEM_ATOM_UDEF_STEREO_COUNT>
0

> <PUBCHEM_BOND_DEF_STEREO_COUNT>
1

> <PUBCHEM_BOND_UDEF_STEREO_COUNT>
0

> <PUBCHEM_ISOTOPIC_ATOM_COUNT>
0

> <PUBCHEM_COMPONENT_COUNT>
1

> <PUBCHEM_CACTVS_TAUTO_COUNT>
1

> <PUBCHEM_CONFORMER_ID>
00D3815E00000004

> <PUBCHEM_MMFF94_ENERGY>
61.9063

> <PUBCHEM_FEATURE_SELFOVERLAP>
40.68

> <PUBCHEM_SHAPE_FINGERPRINT>
10692045 39 18335127697300689370
11069576 57 14404364762835407236
12422481 6 17458336429520739084
12633257 1 16153713162493736006
12769317 202 18272928341100878448
12925494 130 18265329513294699581
13402501 40 18341611564018290112
13551218 46 7925622298640571945
13561361 72 18260824865431604260
13955234 65 18336268916607264482
14251764 30 9511196143987948152
14251764 38 18190467253681972732
14461889 52 17895207610137724171
14556957 393 16415488108213758953
14739800 52 18337663135836126251
15238133 3 18264208183839214748
15419008 145 18262224518454147424
17810953 82 18411136957350251508
18222031 100 10015592700872924350
20511986 3 18187918453317979671
20691028 202 18128546960033166193
20715895 44 18341893004782708672
21033648 29 18335426811248608908
21150785 3 17060613417790710733
21307412 95 8934188929640716809
21315763 129 18410293652725920004
21452121 103 18410572881962417838
21475661 188 18341048609985854420
21641784 216 15195023651388552002
23016692 55 8862674520581047666
23559900 14 18125443003847075167
2748736 6 18412819209534327709
2838139 119 18130498756079745828
2916195 48 18342175613171660954
3459 39 18339905100348919760
3472631 163 18272933808467457615
34797466 226 17846508027976833055
3680242 22 18334576824214698064
437795 96 18188197720281288573
465052 167 11963381943429709632
5104073 3 18114466673940403971
5372103 7 15337971236073396296
57091435 61 18410573998305638288
67856867 119 18335698287035747619
7970288 3 9294750674432572780
960060 61 11527958880489393698
9981440 41 18260270780422174203

> <PUBCHEM_SHAPE_MULTIPOLES>
462.25
16.8
3.55
1.06
10.17
0.42
-0.02
13.79
-2.84
-0.36
-0.83
-1.49
-0.11
1.35

> <PUBCHEM_SHAPE_SELFOVERLAP>
1006.325

> <PUBCHEM_SHAPE_VOLUME>
253.9

> <PUBCHEM_COORDINATE_TYPE>
2
5
10

$$$$
