13943205
  -OEChem-03052615053D

 37 39  0     1  0  0  0  0  0999 V2000
    0.8690   -1.8546   -0.1702 O   0  0  0  0  0  0  0  0  0  0  0  0
   -3.3619   -1.5524    1.5033 O   0  0  0  0  0  0  0  0  0  0  0  0
    2.1184    2.7549   -0.1409 O   0  0  0  0  0  0  0  0  0  0  0  0
    2.9455   -2.8342   -0.1193 O   0  0  0  0  0  0  0  0  0  0  0  0
   -0.9294   -0.3334   -0.7428 C   0  0  1  0  0  0  0  0  0  0  0  0
   -1.7203    0.9705   -0.4925 C   0  0  1  0  0  0  0  0  0  0  0  0
    0.3188   -0.5515    0.1386 C   0  0  2  0  0  0  0  0  0  0  0  0
    1.4519    0.4286   -0.1738 C   0  0  1  0  0  0  0  0  0  0  0  0
   -2.6687    0.6072    0.6599 C   0  0  0  0  0  0  0  0  0  0  0  0
   -2.0056   -1.3785   -0.4824 C   0  0  0  0  0  0  0  0  0  0  0  0
   -3.1402   -0.8035    0.3217 C   0  0  1  0  0  0  0  0  0  0  0  0
    1.4146    1.7531    0.6043 C   0  0  2  0  0  0  0  0  0  0  0  0
   -0.9333    2.2411   -0.2658 C   0  0  0  0  0  0  0  0  0  0  0  0
    0.0208    2.3119    0.9018 C   0  0  0  0  0  0  0  0  0  0  0  0
    2.6358   -0.4483    0.1035 C   0  0  0  0  0  0  0  0  0  0  0  0
    2.2246   -1.8547   -0.0633 C   0  0  0  0  0  0  0  0  0  0  0  0
   -2.0149   -2.6138   -1.0011 C   0  0  0  0  0  0  0  0  0  0  0  0
   -1.1065    3.3081   -1.0645 C   0  0  0  0  0  0  0  0  0  0  0  0
    3.8815   -0.1506    0.4836 C   0  0  0  0  0  0  0  0  0  0  0  0
   -0.6354   -0.3847   -1.8004 H   0  0  0  0  0  0  0  0  0  0  0  0
   -2.3574    1.1227   -1.3795 H   0  0  0  0  0  0  0  0  0  0  0  0
    0.0566   -0.5609    1.2049 H   0  0  0  0  0  0  0  0  0  0  0  0
    1.4728    0.6381   -1.2534 H   0  0  0  0  0  0  0  0  0  0  0  0
   -2.1800    0.6262    1.6402 H   0  0  0  0  0  0  0  0  0  0  0  0
   -3.5157    1.3006    0.7188 H   0  0  0  0  0  0  0  0  0  0  0  0
   -4.0612   -0.7742   -0.2706 H   0  0  0  0  0  0  0  0  0  0  0  0
    1.9366    1.6561    1.5642 H   0  0  0  0  0  0  0  0  0  0  0  0
    0.1201    3.3578    1.2246 H   0  0  0  0  0  0  0  0  0  0  0  0
   -0.4026    1.7885    1.7644 H   0  0  0  0  0  0  0  0  0  0  0  0
   -2.8411   -3.2920   -0.8163 H   0  0  0  0  0  0  0  0  0  0  0  0
   -1.2021   -2.9684   -1.6252 H   0  0  0  0  0  0  0  0  0  0  0  0
   -1.7979    3.2867   -1.9002 H   0  0  0  0  0  0  0  0  0  0  0  0
   -0.5567    4.2295   -0.9023 H   0  0  0  0  0  0  0  0  0  0  0  0
   -2.5188   -1.6268    1.9826 H   0  0  0  0  0  0  0  0  0  0  0  0
    3.0066    2.4172   -0.3407 H   0  0  0  0  0  0  0  0  0  0  0  0
    4.2003    0.8744    0.6312 H   0  0  0  0  0  0  0  0  0  0  0  0
    4.6235   -0.9221    0.6619 H   0  0  0  0  0  0  0  0  0  0  0  0
  1  7  1  0  0  0  0
  1 16  1  0  0  0  0
  2 11  1  0  0  0  0
  2 34  1  0  0  0  0
  3 12  1  0  0  0  0
  3 35  1  0  0  0  0
  4 16  2  0  0  0  0
  5  6  1  0  0  0  0
  5  7  1  0  0  0  0
  5 10  1  0  0  0  0
  5 20  1  0  0  0  0
  6  9  1  0  0  0  0
  6 13  1  0  0  0  0
  6 21  1  0  0  0  0
  7  8  1  0  0  0  0
  7 22  1  0  0  0  0
  8 12  1  0  0  0  0
  8 15  1  0  0  0  0
  8 23  1  0  0  0  0
  9 11  1  0  0  0  0
  9 24  1  0  0  0  0
  9 25  1  0  0  0  0
 10 11  1  0  0  0  0
 10 17  2  0  0  0  0
 11 26  1  0  0  0  0
 12 14  1  0  0  0  0
 12 27  1  0  0  0  0
 13 14  1  0  0  0  0
 13 18  2  0  0  0  0
 14 28  1  0  0  0  0
 14 29  1  0  0  0  0
 15 16  1  0  0  0  0
 15 19  2  0  0  0  0
 17 30  1  0  0  0  0
 17 31  1  0  0  0  0
 18 32  1  0  0  0  0
 18 33  1  0  0  0  0
 19 36  1  0  0  0  0
 19 37  1  0  0  0  0
M  END
> <PUBCHEM_COMPOUND_CID>
13943205

> <PUBCHEM_CONFORMER_RMSD>
0.6

> <PUBCHEM_CONFORMER_DIVERSEORDER>
1
4
3
2

> <PUBCHEM_MMFF94_PARTIAL_CHARGES>
26
1 -0.43
10 -0.28
11 0.42
12 0.28
13 -0.28
14 0.14
15 -0.12
16 0.71
17 -0.3
18 -0.3
19 -0.3
2 -0.68
3 -0.68
30 0.15
31 0.15
32 0.15
33 0.15
34 0.4
35 0.4
36 0.15
37 0.15
4 -0.57
5 0.14
6 0.14
7 0.28
8 0.14

> <PUBCHEM_EFFECTIVE_ROTOR_COUNT>
1

> <PUBCHEM_PHARMACOPHORE_FEATURES>
8
1 2 acceptor
1 2 donor
1 3 acceptor
1 3 donor
1 4 acceptor
5 1 7 8 15 16 rings
5 5 6 9 10 11 rings
7 5 6 7 8 12 13 14 rings

> <PUBCHEM_HEAVY_ATOM_COUNT>
19

> <PUBCHEM_ATOM_DEF_STEREO_COUNT>
6

> <PUBCHEM_ATOM_UDEF_STEREO_COUNT>
0

> <PUBCHEM_BOND_DEF_STEREO_COUNT>
0

> <PUBCHEM_BOND_UDEF_STEREO_COUNT>
0

> <PUBCHEM_ISOTOPIC_ATOM_COUNT>
0

> <PUBCHEM_COMPONENT_COUNT>
1

> <PUBCHEM_CACTVS_TAUTO_COUNT>
1

> <PUBCHEM_CONFORMER_ID>
00D4C1A500000001

> <PUBCHEM_MMFF94_ENERGY>
52.3829

> <PUBCHEM_FEATURE_SELFOVERLAP>
40.668

> <PUBCHEM_SHAPE_FINGERPRINT>
10967382 1 18267580393514988598
11086676 242 18341348737535851673
11132069 177 18271799172591768874
11578080 2 17200759381496025297
11680986 33 18268419149257406728
12251169 10 18272938253795739635
12382932 28 18270961245672985570
12553582 1 18411134770663343238
13140716 1 18268423723423528752
14178342 30 17910384319026942691
14223421 5 18339356375432651504
14790565 3 17687481460679473349
15209289 33 17767409350152774216
16945 1 18411410696515647924
19591789 44 16966620840997175150
19868273 325 18411411830371222255
20510252 161 18126560124428431120
20645476 183 17539982675607005964
20739085 24 18118701025930496849
21501502 16 18197496435649339932
21524375 3 17399227552311334237
22445834 79 18055078924129579123
22721475 48 18411418384348897505
23184049 59 18270974470552549139
2334 1 18051685848078030340
23388829 49 17837488914450858815
23559900 14 17694210081589983218
23598291 2 17986680470118253031
2748010 2 18266162010609462101
3084891 72 17329979201739269918
352729 6 17692811493459658286
427121 178 15406153905773363697
6992083 37 18200882871792524203
81228 2 18262509291522440865
8809292 202 17977948977683163642

> <PUBCHEM_SHAPE_MULTIPOLES>
367.53
5.09
3.66
0.98
1.66
1.21
0.09
-2.63
1.03
-0.03
-0.73
-0.61
0.06
0.37

> <PUBCHEM_SHAPE_SELFOVERLAP>
790.208

> <PUBCHEM_SHAPE_VOLUME>
204.2

> <PUBCHEM_COORDINATE_TYPE>
2
5
10

$$$$
