139989
  -OEChem-03052615083D

 32 31  0     1  0  0  0  0  0999 V2000
    0.7212    0.9445   -0.1035 C   0  0  1  0  0  0  0  0  0  0  0  0
   -0.3747   -0.1463   -0.1266 C   0  0  0  0  0  0  0  0  0  0  0  0
   -1.8008    0.3072    0.2628 C   0  0  1  0  0  0  0  0  0  0  0  0
    2.1167    0.3542   -0.4117 C   0  0  0  0  0  0  0  0  0  0  0  0
   -2.7997   -0.8706    0.2225 C   0  0  0  0  0  0  0  0  0  0  0  0
    0.4268    2.0647   -1.1083 C   0  0  0  0  0  0  0  0  0  0  0  0
   -1.8350    0.9357    1.6606 C   0  0  0  0  0  0  0  0  0  0  0  0
    2.5372   -0.7671    0.5422 C   0  0  0  0  0  0  0  0  0  0  0  0
   -2.9177   -1.5332   -1.1430 C   0  0  0  0  0  0  0  0  0  0  0  0
    3.9261   -1.2891    0.2049 C   0  0  0  0  0  0  0  0  0  0  0  0
    0.7721    1.3855    0.8987 H   0  0  0  0  0  0  0  0  0  0  0  0
   -0.3889   -0.5837   -1.1317 H   0  0  0  0  0  0  0  0  0  0  0  0
   -0.1071   -0.9543    0.5621 H   0  0  0  0  0  0  0  0  0  0  0  0
   -2.1462    1.0586   -0.4575 H   0  0  0  0  0  0  0  0  0  0  0  0
    2.1307   -0.0276   -1.4410 H   0  0  0  0  0  0  0  0  0  0  0  0
    2.8625    1.1583   -0.3655 H   0  0  0  0  0  0  0  0  0  0  0  0
   -2.5182   -1.6288    0.9636 H   0  0  0  0  0  0  0  0  0  0  0  0
   -3.7933   -0.5042    0.5098 H   0  0  0  0  0  0  0  0  0  0  0  0
    0.3175    1.6688   -2.1235 H   0  0  0  0  0  0  0  0  0  0  0  0
    1.2372    2.8016   -1.1178 H   0  0  0  0  0  0  0  0  0  0  0  0
   -0.4920    2.5991   -0.8491 H   0  0  0  0  0  0  0  0  0  0  0  0
   -2.8625    1.1779    1.9537 H   0  0  0  0  0  0  0  0  0  0  0  0
   -1.2667    1.8700    1.6922 H   0  0  0  0  0  0  0  0  0  0  0  0
   -1.4209    0.2554    2.4123 H   0  0  0  0  0  0  0  0  0  0  0  0
    1.8503   -1.6158    0.4798 H   0  0  0  0  0  0  0  0  0  0  0  0
    2.5238   -0.4035    1.5758 H   0  0  0  0  0  0  0  0  0  0  0  0
   -3.7444   -2.2512   -1.1388 H   0  0  0  0  0  0  0  0  0  0  0  0
   -3.1165   -0.7934   -1.9247 H   0  0  0  0  0  0  0  0  0  0  0  0
   -2.0104   -2.0850   -1.4047 H   0  0  0  0  0  0  0  0  0  0  0  0
    4.6738   -0.4936    0.2842 H   0  0  0  0  0  0  0  0  0  0  0  0
    4.2084   -2.0897    0.8959 H   0  0  0  0  0  0  0  0  0  0  0  0
    3.9581   -1.6914   -0.8128 H   0  0  0  0  0  0  0  0  0  0  0  0
  1  2  1  0  0  0  0
  1  4  1  0  0  0  0
  1  6  1  0  0  0  0
  1 11  1  0  0  0  0
  2  3  1  0  0  0  0
  2 12  1  0  0  0  0
  2 13  1  0  0  0  0
  3  5  1  0  0  0  0
  3  7  1  0  0  0  0
  3 14  1  0  0  0  0
  4  8  1  0  0  0  0
  4 15  1  0  0  0  0
  4 16  1  0  0  0  0
  5  9  1  0  0  0  0
  5 17  1  0  0  0  0
  5 18  1  0  0  0  0
  6 19  1  0  0  0  0
  6 20  1  0  0  0  0
  6 21  1  0  0  0  0
  7 22  1  0  0  0  0
  7 23  1  0  0  0  0
  7 24  1  0  0  0  0
  8 10  1  0  0  0  0
  8 25  1  0  0  0  0
  8 26  1  0  0  0  0
  9 27  1  0  0  0  0
  9 28  1  0  0  0  0
  9 29  1  0  0  0  0
 10 30  1  0  0  0  0
 10 31  1  0  0  0  0
 10 32  1  0  0  0  0
M  END
> <PUBCHEM_COMPOUND_CID>
139989

> <PUBCHEM_CONFORMER_RMSD>
0.6

> <PUBCHEM_CONFORMER_DIVERSEORDER>
19
41
47
11
17
43
33
51
5
44
50
24
37
57
54
6
8
22
39
56
36
10
7
59
26
45
49
35
58
15
25
29
9
55
14
53
4
13
21
20
52
34
27
31
40
1
38
18
48
16
12
23
42
3
46
2
30
28
32

> <PUBCHEM_MMFF94_PARTIAL_CHARGES>
0

> <PUBCHEM_EFFECTIVE_ROTOR_COUNT>
5

> <PUBCHEM_PHARMACOPHORE_FEATURES>
6
1 10 hydrophobe
1 6 hydrophobe
1 7 hydrophobe
1 9 hydrophobe
3 1 4 8 hydrophobe
3 2 3 5 hydrophobe

> <PUBCHEM_HEAVY_ATOM_COUNT>
10

> <PUBCHEM_ATOM_DEF_STEREO_COUNT>
0

> <PUBCHEM_ATOM_UDEF_STEREO_COUNT>
2

> <PUBCHEM_BOND_DEF_STEREO_COUNT>
0

> <PUBCHEM_BOND_UDEF_STEREO_COUNT>
0

> <PUBCHEM_ISOTOPIC_ATOM_COUNT>
0

> <PUBCHEM_COMPONENT_COUNT>
1

> <PUBCHEM_CACTVS_TAUTO_COUNT>
1

> <PUBCHEM_CONFORMER_ID>
000222D500000013

> <PUBCHEM_MMFF94_ENERGY>
8.0298

> <PUBCHEM_FEATURE_SELFOVERLAP>
30.785

> <PUBCHEM_SHAPE_FINGERPRINT>
10149128 111 9943803408893698466
10857977 72 15984833700158956923
11769659 78 18271237317691678999
12932741 1 16153992472912326881
12932764 1 18340501035371871945
14128692 85 18341046432004606807
177051 138 18131347544111399838
20201158 50 17240202106094598706
20211469 26 18130496470576954054
20281407 28 18335700478006423986
20361792 2 18187368718276924686
20653085 51 17313094298530737741
20671657 53 18261664960886151007
20711985 327 18409735058296604796
20711985 344 17096915885309056196
23211744 41 14620524380315037533
23552423 10 18120942964651763917
3086196 2 17704346671736422219
449060 23 18338804407863879238

> <PUBCHEM_SHAPE_MULTIPOLES>
205.8
5.63
1.78
1.21
2.79
0.37
0.18
-3.81
0.3
0
-0.53
-0.73
0.29
-1.1

> <PUBCHEM_SHAPE_SELFOVERLAP>
364.104

> <PUBCHEM_SHAPE_VOLUME>
137

> <PUBCHEM_COORDINATE_TYPE>
2
5
10

$$$$
