10115052
  -OEChem-02172602533D

 59 62  0     1  0  0  0  0  0999 V2000
    4.0801    2.0211    0.7208 S   0  0  0  0  0  0  0  0  0  0  0  0
    3.4044    2.9935   -0.1188 O   0  0  0  0  0  0  0  0  0  0  0  0
    3.8195    1.9770    2.1473 O   0  0  0  0  0  0  0  0  0  0  0  0
    3.0725   -2.6040    0.2364 O   0  0  0  0  0  0  0  0  0  0  0  0
   -1.7880   -0.3250   -0.4663 O   0  0  0  0  0  0  0  0  0  0  0  0
    6.0324    0.6241   -1.3052 N   0  0  0  0  0  0  0  0  0  0  0  0
    5.3887   -2.7872    0.1788 N   0  0  0  0  0  0  0  0  0  0  0  0
   -6.6572   -1.0529   -0.1805 N   0  0  0  0  0  0  0  0  0  0  0  0
    3.8419    0.3518   -0.0025 C   0  0  1  0  0  0  0  0  0  0  0  0
    4.5963    0.3312   -1.3677 C   0  0  0  0  0  0  0  0  0  0  0  0
    5.8307    2.2832    0.5285 C   0  0  0  0  0  0  0  0  0  0  0  0
    4.4302   -0.7272    0.9341 C   0  0  0  0  0  0  0  0  0  0  0  0
    2.3158    0.1688   -0.1278 C   0  0  0  0  0  0  0  0  0  0  0  0
    6.2939    2.0010   -0.8905 C   0  0  0  0  0  0  0  0  0  0  0  0
    4.1907   -2.1289    0.4153 C   0  0  0  0  0  0  0  0  0  0  0  0
    1.5207    0.1667    1.0159 C   0  0  0  0  0  0  0  0  0  0  0  0
    1.7378    0.0053   -1.3847 C   0  0  0  0  0  0  0  0  0  0  0  0
    0.1404    0.0003    0.9023 C   0  0  0  0  0  0  0  0  0  0  0  0
    0.3576   -0.1610   -1.4984 C   0  0  0  0  0  0  0  0  0  0  0  0
   -0.4411   -0.1634   -0.3549 C   0  0  0  0  0  0  0  0  0  0  0  0
    5.4602   -4.1423   -0.3181 C   0  0  0  0  0  0  0  0  0  0  0  0
   -2.5450   -0.3177    0.7430 C   0  0  0  0  0  0  0  0  0  0  0  0
   -3.9925   -0.5396    0.4160 C   0  0  0  0  0  0  0  0  0  0  0  0
   -4.8638    0.5224    0.1495 C   0  0  0  0  0  0  0  0  0  0  0  0
   -4.4487   -1.8476    0.3850 C   0  0  0  0  0  0  0  0  0  0  0  0
   -6.2080    0.2160   -0.1489 C   0  0  0  0  0  0  0  0  0  0  0  0
   -5.7804   -2.0486    0.0837 C   0  0  0  0  0  0  0  0  0  0  0  0
   -4.4290    1.8585    0.1736 C   0  0  0  0  0  0  0  0  0  0  0  0
   -7.0767    1.2708   -0.4148 C   0  0  0  0  0  0  0  0  0  0  0  0
   -5.3193    2.8939   -0.0967 C   0  0  0  0  0  0  0  0  0  0  0  0
   -6.3193   -3.4394    0.0366 C   0  0  0  0  0  0  0  0  0  0  0  0
   -6.6447    2.5992   -0.3912 C   0  0  0  0  0  0  0  0  0  0  0  0
    4.4863   -0.6532   -1.8393 H   0  0  0  0  0  0  0  0  0  0  0  0
    4.1520    1.0540   -2.0648 H   0  0  0  0  0  0  0  0  0  0  0  0
    6.0294    3.3256    0.7979 H   0  0  0  0  0  0  0  0  0  0  0  0
    6.3467    1.6431    1.2511 H   0  0  0  0  0  0  0  0  0  0  0  0
    3.9876   -0.6896    1.9370 H   0  0  0  0  0  0  0  0  0  0  0  0
    5.4990   -0.5522    1.0997 H   0  0  0  0  0  0  0  0  0  0  0  0
    7.3745    2.1752   -0.9428 H   0  0  0  0  0  0  0  0  0  0  0  0
    5.8295    2.7014   -1.5952 H   0  0  0  0  0  0  0  0  0  0  0  0
    6.4360    0.4798   -2.2309 H   0  0  0  0  0  0  0  0  0  0  0  0
    1.9393    0.2777    2.0105 H   0  0  0  0  0  0  0  0  0  0  0  0
    2.3085   -0.0117   -2.3056 H   0  0  0  0  0  0  0  0  0  0  0  0
   -0.4142    0.0040    1.8340 H   0  0  0  0  0  0  0  0  0  0  0  0
   -0.0904   -0.2904   -2.4799 H   0  0  0  0  0  0  0  0  0  0  0  0
    6.2692   -2.3031    0.3243 H   0  0  0  0  0  0  0  0  0  0  0  0
    6.2530   -4.6651    0.2221 H   0  0  0  0  0  0  0  0  0  0  0  0
    4.5090   -4.6620   -0.1808 H   0  0  0  0  0  0  0  0  0  0  0  0
    5.7087   -4.1026   -1.3815 H   0  0  0  0  0  0  0  0  0  0  0  0
   -2.2180   -1.1449    1.3896 H   0  0  0  0  0  0  0  0  0  0  0  0
   -2.4086    0.6072    1.3136 H   0  0  0  0  0  0  0  0  0  0  0  0
   -3.7889   -2.6856    0.5850 H   0  0  0  0  0  0  0  0  0  0  0  0
   -3.4008    2.1392    0.3783 H   0  0  0  0  0  0  0  0  0  0  0  0
   -8.1199    1.0665   -0.6486 H   0  0  0  0  0  0  0  0  0  0  0  0
   -4.9793    3.9249   -0.0820 H   0  0  0  0  0  0  0  0  0  0  0  0
   -5.7948   -4.0254   -0.7248 H   0  0  0  0  0  0  0  0  0  0  0  0
   -7.3857   -3.4402   -0.2123 H   0  0  0  0  0  0  0  0  0  0  0  0
   -6.1998   -3.9273    1.0092 H   0  0  0  0  0  0  0  0  0  0  0  0
   -7.3460    3.4007   -0.6043 H   0  0  0  0  0  0  0  0  0  0  0  0
  1  2  2  0  0  0  0
  1  3  2  0  0  0  0
  1  9  1  0  0  0  0
  1 11  1  0  0  0  0
  4 15  2  0  0  0  0
  5 20  1  0  0  0  0
  5 22  1  0  0  0  0
  6 10  1  0  0  0  0
  6 14  1  0  0  0  0
  6 41  1  0  0  0  0
  7 15  1  0  0  0  0
  7 21  1  0  0  0  0
  7 46  1  0  0  0  0
  8 26  1  0  0  0  0
  8 27  2  0  0  0  0
  9 10  1  0  0  0  0
  9 12  1  0  0  0  0
  9 13  1  0  0  0  0
 10 33  1  0  0  0  0
 10 34  1  0  0  0  0
 11 14  1  0  0  0  0
 11 35  1  0  0  0  0
 11 36  1  0  0  0  0
 12 15  1  0  0  0  0
 12 37  1  0  0  0  0
 12 38  1  0  0  0  0
 13 16  2  0  0  0  0
 13 17  1  0  0  0  0
 14 39  1  0  0  0  0
 14 40  1  0  0  0  0
 16 18  1  0  0  0  0
 16 42  1  0  0  0  0
 17 19  2  0  0  0  0
 17 43  1  0  0  0  0
 18 20  2  0  0  0  0
 18 44  1  0  0  0  0
 19 20  1  0  0  0  0
 19 45  1  0  0  0  0
 21 47  1  0  0  0  0
 21 48  1  0  0  0  0
 21 49  1  0  0  0  0
 22 23  1  0  0  0  0
 22 50  1  0  0  0  0
 22 51  1  0  0  0  0
 23 24  1  0  0  0  0
 23 25  2  0  0  0  0
 24 26  1  0  0  0  0
 24 28  2  0  0  0  0
 25 27  1  0  0  0  0
 25 52  1  0  0  0  0
 26 29  2  0  0  0  0
 27 31  1  0  0  0  0
 28 30  1  0  0  0  0
 28 53  1  0  0  0  0
 29 32  1  0  0  0  0
 29 54  1  0  0  0  0
 30 32  2  0  0  0  0
 30 55  1  0  0  0  0
 31 56  1  0  0  0  0
 31 57  1  0  0  0  0
 31 58  1  0  0  0  0
 32 59  1  0  0  0  0
M  END
> <PUBCHEM_COMPOUND_CID>
10115052

> <PUBCHEM_CONFORMER_RMSD>
1

> <PUBCHEM_CONFORMER_DIVERSEORDER>
1
132
34
195
118
230
131
162
177
108
79
196
179
203
226
134
87
184
111
156
99
227
185
207
88
175
112
231
211
235
224
82
83
77
236
155
117
122
170
206
103
52
126
145
94
141
100
214
38
57
237
63
42
75
223
229
234
221
86
218
93
158
109
219
212
73
143
127
209
124
147
220
233
151
101
232
105
197
149
36
144
192
183
104
41
142
146
98
39
216
110
171
165
217
84
115
172
238
210
27
193
64
92
8
187
121
81
200
23
194
95
181
140
35
205
190
4
114
40
174
191
55
62
182
70
178
240
46
18
198
128
56
160
54
135
154
61
65
47
161
133
49
139
6
74
239
68
123
20
166
138
50
153
11
163
152
7
150
136
71
69
157
107
14
159
188
51
102
31
169
186
222
13
28
176
29
148
90
215
97
32
137
208
76
228
58
59
44
189
89
130
3
91
30
96
48
66
85
78
119
22
129
225
10
180
106
9
26
164
125
2
21
45
17
15
80
72
37
213
199
53
120
16
43
201
202
5
24
25
167
113
116
19
168
173
33
204
60
12
67

> <PUBCHEM_MMFF94_PARTIAL_CHARGES>
42
1 1.09
10 0.27
11 0.11
12 0.06
13 -0.14
14 0.27
15 0.57
16 -0.15
17 -0.15
18 -0.15
19 -0.15
2 -0.65
20 0.08
21 0.3
22 0.42
23 -0.14
25 -0.15
26 0.31
27 0.17
28 -0.15
29 -0.15
3 -0.65
30 -0.15
31 0.14
32 -0.15
4 -0.57
41 0.36
42 0.15
43 0.15
44 0.15
45 0.15
46 0.37
5 -0.36
52 0.15
53 0.15
54 0.15
55 0.15
59 0.15
6 -0.9
7 -0.73
8 -0.62
9 0.25

> <PUBCHEM_EFFECTIVE_ROTOR_COUNT>
8

> <PUBCHEM_PHARMACOPHORE_FEATURES>
12
1 2 acceptor
1 3 acceptor
1 4 acceptor
1 5 acceptor
1 6 cation
1 6 donor
1 7 donor
1 8 acceptor
6 1 6 9 10 11 14 rings
6 13 16 17 18 19 20 rings
6 24 26 28 29 30 32 rings
6 8 23 24 25 26 27 rings

> <PUBCHEM_HEAVY_ATOM_COUNT>
32

> <PUBCHEM_ATOM_DEF_STEREO_COUNT>
0

> <PUBCHEM_ATOM_UDEF_STEREO_COUNT>
1

> <PUBCHEM_BOND_DEF_STEREO_COUNT>
0

> <PUBCHEM_BOND_UDEF_STEREO_COUNT>
0

> <PUBCHEM_ISOTOPIC_ATOM_COUNT>
0

> <PUBCHEM_COMPONENT_COUNT>
1

> <PUBCHEM_CACTVS_TAUTO_COUNT>
2

> <PUBCHEM_CONFORMER_ID>
009A57EC00000001

> <PUBCHEM_MMFF94_ENERGY>
94.6712

> <PUBCHEM_FEATURE_SELFOVERLAP>
60.947

> <PUBCHEM_SHAPE_FINGERPRINT>
10165383 225 18261959669791425860
10554248 39 18270390599296276709
10595046 47 18336266833721224359
10835480 77 18410006641963723521
10906281 52 16950861305172301436
11672396 167 18338506448792942559
11719270 70 17774720861901450327
11991303 11 17131826620994560413
12236239 1 17894349973792879585
13073987 5 18408886256789620739
13383665 225 17822308851065965396
13533116 47 18410856547161511570
13782708 43 18060136561785626847
13911987 19 17060339639464245373
14118638 360 18261390087670059891
14933364 13 18411140255478965909
15064986 266 18409172109081882683
15183329 4 17989492892329641753
15361156 5 17895490132448332951
15439362 3 17908989052554262032
1577012 14 18334858307944788805
17844677 252 18411705395970995545
20511986 3 18040986337831275501
21033648 29 18272361027102306696
23081809 10 17822006527795155491
23559900 14 18341604907192852409
23569914 2 17688817169633620261
23569943 247 16734373899070900787
24771293 8 17603871160671429380
3004659 81 18262799562513059346
394071 54 16153434977783702172
4073 2 18041285447242545363
4098825 35 18408322163884028505
4144715 1 18335707130900294185
5104073 3 18187365415721368241
5109719 28 18054790851946699648
531348 171 18342454817039502695
77296 10 18410856551530117467
9831232 110 18268151968148830510

> <PUBCHEM_SHAPE_MULTIPOLES>
623.97
21.64
3.84
1.16
16.66
2.19
0
-1.16
-1.66
-1.37
0.16
-1.46
-0.32
0.68

> <PUBCHEM_SHAPE_SELFOVERLAP>
1337.342

> <PUBCHEM_SHAPE_VOLUME>
345.6

> <PUBCHEM_COORDINATE_TYPE>
2
5
10

$$$$
