10091875
  -OEChem-02172602513D

 57 60  0     1  0  0  0  0  0999 V2000
   -1.7118    0.1221    0.6495 Si  0  0  0  0  0  0  0  0  0  0  0  0
   -0.1234    0.6205    0.6478 O   0  0  0  0  0  0  0  0  0  0  0  0
    5.6954    0.0804   -1.0084 N   0  0  0  0  0  0  0  0  0  0  0  0
    6.9261   -0.0872   -1.0062 N   0  3  0  0  0  0  0  0  0  0  0  0
    8.0553   -0.2482   -1.0137 N   0  5  0  0  0  0  0  0  0  0  0  0
    3.3521   -0.3515    0.9408 C   0  0  2  0  0  0  0  0  0  0  0  0
    2.8018    0.5856   -0.0907 C   0  0  1  0  0  0  0  0  0  0  0  0
    2.1787    0.5258    1.2756 C   0  0  0  0  0  0  0  0  0  0  0  0
    4.7619    0.0681    1.2525 C   0  0  0  0  0  0  0  0  0  0  0  0
    3.8664    1.5929   -0.4263 C   0  0  0  0  0  0  0  0  0  0  0  0
    5.1702    0.9430    0.0585 C   0  0  0  0  0  0  0  0  0  0  0  0
    0.8400   -0.0910    1.4290 C   0  0  0  0  0  0  0  0  0  0  0  0
   -2.4350   -0.0325    2.3539 C   0  0  0  0  0  0  0  0  0  0  0  0
   -2.6776    1.2781   -0.4753 C   0  0  0  0  0  0  0  0  0  0  0  0
   -1.7946   -1.5135   -0.2817 C   0  0  0  0  0  0  0  0  0  0  0  0
   -3.9665    0.1631    2.3027 C   0  0  0  0  0  0  0  0  0  0  0  0
   -2.1319   -1.4309    2.9370 C   0  0  0  0  0  0  0  0  0  0  0  0
   -1.8284    1.0374    3.2886 C   0  0  0  0  0  0  0  0  0  0  0  0
   -3.7022    0.7669   -1.2576 C   0  0  0  0  0  0  0  0  0  0  0  0
   -0.8051   -1.8186   -1.2013 C   0  0  0  0  0  0  0  0  0  0  0  0
   -2.3535    2.6260   -0.5082 C   0  0  0  0  0  0  0  0  0  0  0  0
   -2.8423   -2.3837   -0.0321 C   0  0  0  0  0  0  0  0  0  0  0  0
   -4.4196    1.6238   -2.0922 C   0  0  0  0  0  0  0  0  0  0  0  0
   -0.8651   -3.0294   -1.8910 C   0  0  0  0  0  0  0  0  0  0  0  0
   -3.0709    3.4828   -1.3429 C   0  0  0  0  0  0  0  0  0  0  0  0
   -2.9023   -3.5946   -0.7220 C   0  0  0  0  0  0  0  0  0  0  0  0
   -4.1040    2.9818   -2.1349 C   0  0  0  0  0  0  0  0  0  0  0  0
   -1.9137   -3.9175   -1.6514 C   0  0  0  0  0  0  0  0  0  0  0  0
    3.2268   -1.4134    0.7867 H   0  0  0  0  0  0  0  0  0  0  0  0
    2.2977    0.1644   -0.9482 H   0  0  0  0  0  0  0  0  0  0  0  0
    2.3206    1.3738    1.9342 H   0  0  0  0  0  0  0  0  0  0  0  0
    4.7775    0.6544    2.1784 H   0  0  0  0  0  0  0  0  0  0  0  0
    5.4176   -0.7984    1.3853 H   0  0  0  0  0  0  0  0  0  0  0  0
    3.8858    1.8145   -1.4983 H   0  0  0  0  0  0  0  0  0  0  0  0
    3.6781    2.5269    0.1154 H   0  0  0  0  0  0  0  0  0  0  0  0
    5.9082    1.7042    0.3387 H   0  0  0  0  0  0  0  0  0  0  0  0
    0.5946   -0.0901    2.4913 H   0  0  0  0  0  0  0  0  0  0  0  0
    0.8709   -1.1397    1.1067 H   0  0  0  0  0  0  0  0  0  0  0  0
   -4.4826   -0.5207    1.6246 H   0  0  0  0  0  0  0  0  0  0  0  0
   -4.4019    0.0060    3.2977 H   0  0  0  0  0  0  0  0  0  0  0  0
   -4.2352    1.1843    2.0048 H   0  0  0  0  0  0  0  0  0  0  0  0
   -1.0877   -1.7373    2.8122 H   0  0  0  0  0  0  0  0  0  0  0  0
   -2.7699   -2.2254    2.5464 H   0  0  0  0  0  0  0  0  0  0  0  0
   -2.3233   -1.4272    4.0186 H   0  0  0  0  0  0  0  0  0  0  0  0
   -0.7806    0.8703    3.5399 H   0  0  0  0  0  0  0  0  0  0  0  0
   -2.3648    1.0480    4.2464 H   0  0  0  0  0  0  0  0  0  0  0  0
   -1.9169    2.0477    2.8701 H   0  0  0  0  0  0  0  0  0  0  0  0
   -4.0017   -0.2745   -1.2484 H   0  0  0  0  0  0  0  0  0  0  0  0
    0.0185   -1.1433   -1.4160 H   0  0  0  0  0  0  0  0  0  0  0  0
   -1.5549    3.0414    0.1012 H   0  0  0  0  0  0  0  0  0  0  0  0
   -3.6613   -2.1646    0.6389 H   0  0  0  0  0  0  0  0  0  0  0  0
   -5.2272    1.2351   -2.7058 H   0  0  0  0  0  0  0  0  0  0  0  0
   -0.0968   -3.2798   -2.6168 H   0  0  0  0  0  0  0  0  0  0  0  0
   -2.8261    4.5405   -1.3755 H   0  0  0  0  0  0  0  0  0  0  0  0
   -3.7249   -4.2813   -0.5444 H   0  0  0  0  0  0  0  0  0  0  0  0
   -4.6635    3.6492   -2.7837 H   0  0  0  0  0  0  0  0  0  0  0  0
   -1.9621   -4.8588   -2.1909 H   0  0  0  0  0  0  0  0  0  0  0  0
  1  2  1  0  0  0  0
  1 13  1  0  0  0  0
  1 14  1  0  0  0  0
  1 15  1  0  0  0  0
  2 12  1  0  0  0  0
  3  4  2  0  0  0  0
  3 11  1  0  0  0  0
  4  5  2  0  0  0  0
  6  7  1  0  0  0  0
  6  8  1  0  0  0  0
  6  9  1  0  0  0  0
  6 29  1  0  0  0  0
  7  8  1  0  0  0  0
  7 10  1  0  0  0  0
  7 30  1  0  0  0  0
  8 12  1  0  0  0  0
  8 31  1  0  0  0  0
  9 11  1  0  0  0  0
  9 32  1  0  0  0  0
  9 33  1  0  0  0  0
 10 11  1  0  0  0  0
 10 34  1  0  0  0  0
 10 35  1  0  0  0  0
 11 36  1  0  0  0  0
 12 37  1  0  0  0  0
 12 38  1  0  0  0  0
 13 16  1  0  0  0  0
 13 17  1  0  0  0  0
 13 18  1  0  0  0  0
 14 19  2  0  0  0  0
 14 21  1  0  0  0  0
 15 20  2  0  0  0  0
 15 22  1  0  0  0  0
 16 39  1  0  0  0  0
 16 40  1  0  0  0  0
 16 41  1  0  0  0  0
 17 42  1  0  0  0  0
 17 43  1  0  0  0  0
 17 44  1  0  0  0  0
 18 45  1  0  0  0  0
 18 46  1  0  0  0  0
 18 47  1  0  0  0  0
 19 23  1  0  0  0  0
 19 48  1  0  0  0  0
 20 24  1  0  0  0  0
 20 49  1  0  0  0  0
 21 25  2  0  0  0  0
 21 50  1  0  0  0  0
 22 26  2  0  0  0  0
 22 51  1  0  0  0  0
 23 27  2  0  0  0  0
 23 52  1  0  0  0  0
 24 28  2  0  0  0  0
 24 53  1  0  0  0  0
 25 27  1  0  0  0  0
 25 54  1  0  0  0  0
 26 28  1  0  0  0  0
 26 55  1  0  0  0  0
 27 56  1  0  0  0  0
 28 57  1  0  0  0  0
M  CHG  2   4   1   5  -1
M  END
> <PUBCHEM_COMPOUND_CID>
10091875

> <PUBCHEM_CONFORMER_RMSD>
1

> <PUBCHEM_CONFORMER_DIVERSEORDER>
1
9
4
2
7
6
3
5
8

> <PUBCHEM_MMFF94_PARTIAL_CHARGES>
38
1 0.82
10 0.09
11 0.25
12 0.38
13 -0.08
14 -0.22
15 -0.22
19 -0.15
2 -0.58
20 -0.15
21 -0.15
22 -0.15
23 -0.15
24 -0.15
25 -0.15
26 -0.15
27 -0.15
28 -0.15
29 0.1
3 -0.56
30 0.1
31 0.1
4 0.69
48 0.15
49 0.15
5 -0.37
50 0.15
51 0.15
52 0.15
53 0.15
54 0.15
55 0.15
56 0.15
57 0.15
6 -0.19
7 -0.19
8 -0.19
9 0.09

> <PUBCHEM_EFFECTIVE_ROTOR_COUNT>
7.8

> <PUBCHEM_PHARMACOPHORE_FEATURES>
4
4 13 16 17 18 hydrophobe
6 14 19 21 23 25 27 rings
6 15 20 22 24 26 28 rings
6 6 7 8 9 10 11 rings

> <PUBCHEM_HEAVY_ATOM_COUNT>
28

> <PUBCHEM_ATOM_DEF_STEREO_COUNT>
2

> <PUBCHEM_ATOM_UDEF_STEREO_COUNT>
0

> <PUBCHEM_BOND_DEF_STEREO_COUNT>
0

> <PUBCHEM_BOND_UDEF_STEREO_COUNT>
0

> <PUBCHEM_ISOTOPIC_ATOM_COUNT>
0

> <PUBCHEM_COMPONENT_COUNT>
1

> <PUBCHEM_CACTVS_TAUTO_COUNT>
1

> <PUBCHEM_CONFORMER_ID>
0099FD6300000001

> <PUBCHEM_MMFF94_ENERGY>
80.9804

> <PUBCHEM_FEATURE_SELFOVERLAP>
20.297

> <PUBCHEM_SHAPE_FINGERPRINT>
105312 117 18340200800051638565
10721379 63 17266642968841622517
11135926 11 17987812822026213198
11582403 64 17679564663663171983
11763715 3 17753343246147785343
12058002 1 17189513293499893227
12082328 90 17168155538108007886
12633046 712 17632300124797666824
12714826 92 18057028323675293867
12788726 201 18042664252589162419
13149001 5 17342620605178918657
13165053 103 16558196990837198166
13257819 37 18338219493600278399
133893 2 17555172450510120739
13583140 156 18113343011426393304
13690498 29 18338800147240380726
13994607 96 17748824103524374101
14142880 1 15574710292626438577
14279260 333 17531527586757810120
14468879 13 18261389988753442985
14713325 29 18336256912689902383
14747281 78 17687195192434156469
15064981 113 18050545380032796500
15163728 17 18123183511857381965
17492 54 18117248451559940861
17980427 23 13407933411442185349
17980427 26 17269219171882584177
1813 80 17762885972433068627
19958102 18 18201994439087720790
20101258 96 18043815492523184001
20602899 9 18059841858198328753
21033648 144 18059570339130650304
21756936 100 17530964670257103256
22393880 68 18338790208975882952
22907989 373 18270955864453562197
23419403 2 17689464606430578739
23523787 8 17913458330326461085
23559900 14 17774715455328298152
23598288 3 18041292061613240573
255183 451 17546436143712982567
298252 57 18191842575720176113
32027 91 17987521417116775518
376196 1 17609759921521950165
4015057 19 16558735858955904392
44062 13 18341043103721554742
44249763 50 18267003103468275252
44802255 64 18409169892034791662
469060 322 18192998338297712347
484985 159 17775012322687666423
497634 4 17915752074421869696
531348 171 18335981987416985834
550186 7 17822861870458489293
58260988 587 17907299845926089833
5951187 136 16672154581029558765
59755656 520 18060426793794101907
633830 44 17240476975807156266
9981440 41 18265324007188161485

> <PUBCHEM_SHAPE_MULTIPOLES>
573.63
12.45
3.83
2.82
34.01
2.08
-1.94
-4.21
5.36
-6.45
3.37
-3.1
-0.05
1.25

> <PUBCHEM_SHAPE_SELFOVERLAP>
1210.39

> <PUBCHEM_SHAPE_VOLUME>
323.8

> <PUBCHEM_COORDINATE_TYPE>
2
5
10

$$$$
