101456948
  -OEChem-02172602453D

 25 25  0     1  0  0  0  0  0999 V2000
    1.8636   -2.2155   -1.5424 Br  0  0  0  0  0  0  0  0  0  0  0  0
    3.5468   -1.1873    1.0047 Br  0  0  0  0  0  0  0  0  0  0  0  0
   -2.2536   -1.4574   -1.5128 Cl  0  0  0  0  0  0  0  0  0  0  0  0
   -2.8890    1.3627   -1.3584 Cl  0  0  0  0  0  0  0  0  0  0  0  0
   -4.1650   -0.5344    0.4683 Cl  0  0  0  0  0  0  0  0  0  0  0  0
    0.5565   -1.4913    1.3815 O   0  0  0  0  0  0  0  0  0  0  0  0
   -1.7679   -0.0273    1.8266 O   0  0  0  0  0  0  0  0  0  0  0  0
   -0.1885    0.4047    0.1252 C   0  0  1  0  0  0  0  0  0  0  0  0
    0.2283    1.7515    0.7156 C   0  0  0  0  0  0  0  0  0  0  0  0
    1.2293    2.5081   -0.1533 C   0  0  0  0  0  0  0  0  0  0  0  0
    2.5880    1.8270   -0.3003 C   0  0  0  0  0  0  0  0  0  0  0  0
    2.5438    0.5077   -1.0796 C   0  0  0  0  0  0  0  0  0  0  0  0
    2.1312   -0.7268   -0.2778 C   0  0  0  0  0  0  0  0  0  0  0  0
    0.8236   -0.6676    0.5010 C   0  0  0  0  0  0  0  0  0  0  0  0
   -1.5688    0.0683    0.6127 C   0  0  0  0  0  0  0  0  0  0  0  0
   -2.6783   -0.1225   -0.4111 C   0  0  0  0  0  0  0  0  0  0  0  0
   -0.2199    0.4624   -0.9670 H   0  0  0  0  0  0  0  0  0  0  0  0
    0.6511    1.6173    1.7200 H   0  0  0  0  0  0  0  0  0  0  0  0
   -0.6513    2.3970    0.8387 H   0  0  0  0  0  0  0  0  0  0  0  0
    1.3912    3.4963    0.2955 H   0  0  0  0  0  0  0  0  0  0  0  0
    0.7957    2.6900   -1.1445 H   0  0  0  0  0  0  0  0  0  0  0  0
    3.2373    2.5174   -0.8544 H   0  0  0  0  0  0  0  0  0  0  0  0
    3.0518    1.7006    0.6832 H   0  0  0  0  0  0  0  0  0  0  0  0
    1.8892    0.6433   -1.9509 H   0  0  0  0  0  0  0  0  0  0  0  0
    3.5455    0.3382   -1.5001 H   0  0  0  0  0  0  0  0  0  0  0  0
  1 13  1  0  0  0  0
  2 13  1  0  0  0  0
  3 16  1  0  0  0  0
  4 16  1  0  0  0  0
  5 16  1  0  0  0  0
  6 14  2  0  0  0  0
  7 15  2  0  0  0  0
  8  9  1  0  0  0  0
  8 14  1  0  0  0  0
  8 15  1  0  0  0  0
  8 17  1  0  0  0  0
  9 10  1  0  0  0  0
  9 18  1  0  0  0  0
  9 19  1  0  0  0  0
 10 11  1  0  0  0  0
 10 20  1  0  0  0  0
 10 21  1  0  0  0  0
 11 12  1  0  0  0  0
 11 22  1  0  0  0  0
 11 23  1  0  0  0  0
 12 13  1  0  0  0  0
 12 24  1  0  0  0  0
 12 25  1  0  0  0  0
 13 14  1  0  0  0  0
 15 16  1  0  0  0  0
M  END
> <PUBCHEM_COMPOUND_CID>
101456948

> <PUBCHEM_CONFORMER_RMSD>
0.6

> <PUBCHEM_CONFORMER_DIVERSEORDER>
1
22
12
20
19
9
14
11
13
25
15
18
3
17
10
8
7
6
24
23
21
5
16
2
4

> <PUBCHEM_MMFF94_PARTIAL_CHARGES>
12
1 -0.23
13 0.52
14 0.45
15 0.45
16 0.93
2 -0.23
3 -0.29
4 -0.29
5 -0.29
6 -0.57
7 -0.57
8 0.12

> <PUBCHEM_EFFECTIVE_ROTOR_COUNT>
3.2

> <PUBCHEM_PHARMACOPHORE_FEATURES>
7
1 1 hydrophobe
1 2 hydrophobe
1 6 acceptor
1 7 acceptor
1 8 anion
3 1 2 13 hydrophobe
7 8 9 10 11 12 13 14 rings

> <PUBCHEM_HEAVY_ATOM_COUNT>
16

> <PUBCHEM_ATOM_DEF_STEREO_COUNT>
0

> <PUBCHEM_ATOM_UDEF_STEREO_COUNT>
1

> <PUBCHEM_BOND_DEF_STEREO_COUNT>
0

> <PUBCHEM_BOND_UDEF_STEREO_COUNT>
0

> <PUBCHEM_ISOTOPIC_ATOM_COUNT>
0

> <PUBCHEM_COMPONENT_COUNT>
1

> <PUBCHEM_CACTVS_TAUTO_COUNT>
3

> <PUBCHEM_CONFORMER_ID>
060C1C3400000001

> <PUBCHEM_MMFF94_ENERGY>
31.7523

> <PUBCHEM_FEATURE_SELFOVERLAP>
36.839

> <PUBCHEM_SHAPE_FINGERPRINT>
10062212 137 18116134611024329730
11578080 2 17130413602070799360
12423570 1 18129107723388478802
12932764 1 18410571829399810525
13134695 92 18261657217503188972
14115302 16 17561364010912917279
14178342 30 17774999089814163287
14181834 199 18335135419171358532
15775835 57 18267026231112244893
16945 1 18059861631943059432
17834072 14 18261939757600198952
18186145 218 17968100785187560341
18981168 100 16227429804030391501
20510252 161 8570142768968244854
20645476 183 17846508066663096311
20645477 70 18411979183103946039
20671657 53 18189336779776988474
21524375 3 17906168812916137032
21947302 44 18040437741062659908
22802520 49 18187640284922865429
23388829 49 18340761564378207288
23402539 116 18265884783967382322
23419403 2 15943100512403471234
23557571 272 17983850091196959410
23598291 2 17485962698598032254
25 1 18336270157577797949
2748010 2 18188223047496879064
276578 36 9079106787285804138
3060560 45 18200887265506885508
3286 77 17676202463910240815
5845 1 18124887759143473804
63268167 104 18412267276092594104
81228 2 17834681496040381048

> <PUBCHEM_SHAPE_MULTIPOLES>
335.03
5.94
2.38
1.57
2.85
0.53
-0.05
-1.27
0.04
-1.38
0.8
0.16
-0.46
-0.1

> <PUBCHEM_SHAPE_SELFOVERLAP>
621.683

> <PUBCHEM_SHAPE_VOLUME>
215.1

> <PUBCHEM_COORDINATE_TYPE>
2
5
10

$$$$
