14033815
  -OEChem-03052615063D

 72 75  0     1  0  0  0  0  0999 V2000
    2.7141    0.2882   -1.7814 O   0  0  0  0  0  0  0  0  0  0  0  0
    1.6358    0.2035    0.9647 O   0  0  0  0  0  0  0  0  0  0  0  0
    5.2975    3.0391   -0.2226 O   0  0  0  0  0  0  0  0  0  0  0  0
   -4.2377   -0.7622   -0.3504 O   0  0  0  0  0  0  0  0  0  0  0  0
   -4.4411    1.3589    0.6000 O   0  0  0  0  0  0  0  0  0  0  0  0
   -8.2028   -1.5888    0.3286 O   0  0  0  0  0  0  0  0  0  0  0  0
   -6.3628   -3.7432   -0.2447 O   0  0  0  0  0  0  0  0  0  0  0  0
   -6.8509    0.5474    1.8418 O   0  0  0  0  0  0  0  0  0  0  0  0
   -3.2195    2.6134   -1.5626 O   0  0  0  0  0  0  0  0  0  0  0  0
    7.8289   -1.3215    1.1043 O   0  0  0  0  0  0  0  0  0  0  0  0
   -2.3997   -2.6168   -1.2097 O   0  0  0  0  0  0  0  0  0  0  0  0
    6.8670   -3.8782    0.5895 O   0  0  0  0  0  0  0  0  0  0  0  0
    1.9284    1.3541    0.1627 C   0  0  1  0  0  0  0  0  0  0  0  0
    3.4448    1.5605    0.1288 C   0  0  1  0  0  0  0  0  0  0  0  0
    3.8957    0.6623   -1.0474 C   0  0  1  0  0  0  0  0  0  0  0  0
    1.5974    1.0369   -1.2837 C   0  0  0  0  0  0  0  0  0  0  0  0
    1.0914    2.4937    0.7239 C   0  0  0  0  0  0  0  0  0  0  0  0
    3.8846    3.0058   -0.1227 C   0  0  0  0  0  0  0  0  0  0  0  0
    4.6931   -0.5499   -0.6084 C   0  0  0  0  0  0  0  0  0  0  0  0
   -0.3694    2.1959    0.6880 C   0  0  0  0  0  0  0  0  0  0  0  0
   -6.8117   -1.5508    0.6505 C   0  0  1  0  0  0  0  0  0  0  0  0
   -6.0595   -2.3601   -0.4062 C   0  0  1  0  0  0  0  0  0  0  0  0
   -6.3351   -0.0985    0.6782 C   0  0  2  0  0  0  0  0  0  0  0  0
   -4.5487   -2.1546   -0.2740 C   0  0  1  0  0  0  0  0  0  0  0  0
   -4.8093   -0.0147    0.7207 C   0  0  1  0  0  0  0  0  0  0  0  0
    5.9092   -0.3824    0.0539 C   0  0  0  0  0  0  0  0  0  0  0  0
    4.2105   -1.8328   -0.8667 C   0  0  0  0  0  0  0  0  0  0  0  0
   -1.1255    2.5459   -0.4307 C   0  0  0  0  0  0  0  0  0  0  0  0
   -0.9797    1.5670    1.7733 C   0  0  0  0  0  0  0  0  0  0  0  0
   -3.1021    1.6381    0.6209 C   0  0  0  0  0  0  0  0  0  0  0  0
   -2.4918    2.2669   -0.4643 C   0  0  0  0  0  0  0  0  0  0  0  0
   -2.3460    1.2883    1.7397 C   0  0  0  0  0  0  0  0  0  0  0  0
    6.6428   -1.4979    0.4581 C   0  0  0  0  0  0  0  0  0  0  0  0
   -3.7832   -2.8586   -1.3898 C   0  0  0  0  0  0  0  0  0  0  0  0
    4.9442   -2.9483   -0.4628 C   0  0  0  0  0  0  0  0  0  0  0  0
    6.1601   -2.7809    0.1998 C   0  0  0  0  0  0  0  0  0  0  0  0
   -2.5198    3.2526   -2.6284 C   0  0  0  0  0  0  0  0  0  0  0  0
    8.2508    0.0221    1.3294 C   0  0  0  0  0  0  0  0  0  0  0  0
    3.9024    1.2334    1.0714 H   0  0  0  0  0  0  0  0  0  0  0  0
    4.5233    1.2072   -1.7635 H   0  0  0  0  0  0  0  0  0  0  0  0
    1.5100    1.9358   -1.9032 H   0  0  0  0  0  0  0  0  0  0  0  0
    0.7038    0.4180   -1.4067 H   0  0  0  0  0  0  0  0  0  0  0  0
    1.2728    3.4291    0.1800 H   0  0  0  0  0  0  0  0  0  0  0  0
    1.3863    2.6932    1.7632 H   0  0  0  0  0  0  0  0  0  0  0  0
    3.5913    3.6538    0.7089 H   0  0  0  0  0  0  0  0  0  0  0  0
    3.4606    3.4037   -1.0506 H   0  0  0  0  0  0  0  0  0  0  0  0
    2.0644   -0.5699    0.5621 H   0  0  0  0  0  0  0  0  0  0  0  0
   -6.7147   -2.0140    1.6394 H   0  0  0  0  0  0  0  0  0  0  0  0
   -6.3992   -2.0655   -1.4067 H   0  0  0  0  0  0  0  0  0  0  0  0
   -6.7252    0.4503   -0.1872 H   0  0  0  0  0  0  0  0  0  0  0  0
   -4.1803   -2.5416    0.6859 H   0  0  0  0  0  0  0  0  0  0  0  0
   -4.4482   -0.4049    1.6812 H   0  0  0  0  0  0  0  0  0  0  0  0
    6.2422    0.6345    0.2217 H   0  0  0  0  0  0  0  0  0  0  0  0
    3.2670   -2.0011   -1.3772 H   0  0  0  0  0  0  0  0  0  0  0  0
   -0.6023    3.0413   -1.2413 H   0  0  0  0  0  0  0  0  0  0  0  0
   -0.4051    1.2947    2.6547 H   0  0  0  0  0  0  0  0  0  0  0  0
    5.5522    3.9643   -0.3793 H   0  0  0  0  0  0  0  0  0  0  0  0
   -2.8052    0.8160    2.6035 H   0  0  0  0  0  0  0  0  0  0  0  0
   -4.0664   -2.4590   -2.3693 H   0  0  0  0  0  0  0  0  0  0  0  0
   -3.9558   -3.9389   -1.3759 H   0  0  0  0  0  0  0  0  0  0  0  0
    4.5563   -3.9422   -0.6696 H   0  0  0  0  0  0  0  0  0  0  0  0
   -8.3240   -1.1676   -0.5395 H   0  0  0  0  0  0  0  0  0  0  0  0
   -6.0528   -4.0180    0.6351 H   0  0  0  0  0  0  0  0  0  0  0  0
   -6.5159    0.0747    2.6228 H   0  0  0  0  0  0  0  0  0  0  0  0
   -1.9325   -3.0687   -1.9330 H   0  0  0  0  0  0  0  0  0  0  0  0
    6.3802   -4.6783    0.3271 H   0  0  0  0  0  0  0  0  0  0  0  0
   -2.1120    4.2213   -2.3203 H   0  0  0  0  0  0  0  0  0  0  0  0
   -1.7570    2.5965   -3.0617 H   0  0  0  0  0  0  0  0  0  0  0  0
   -3.2509    3.4533   -3.4186 H   0  0  0  0  0  0  0  0  0  0  0  0
    9.2100   -0.0257    1.8556 H   0  0  0  0  0  0  0  0  0  0  0  0
    7.5566    0.5596    1.9843 H   0  0  0  0  0  0  0  0  0  0  0  0
    8.4320    0.5518    0.3878 H   0  0  0  0  0  0  0  0  0  0  0  0
  1 15  1  0  0  0  0
  1 16  1  0  0  0  0
  2 13  1  0  0  0  0
  2 47  1  0  0  0  0
  3 18  1  0  0  0  0
  3 57  1  0  0  0  0
  4 24  1  0  0  0  0
  4 25  1  0  0  0  0
  5 25  1  0  0  0  0
  5 30  1  0  0  0  0
  6 21  1  0  0  0  0
  6 62  1  0  0  0  0
  7 22  1  0  0  0  0
  7 63  1  0  0  0  0
  8 23  1  0  0  0  0
  8 64  1  0  0  0  0
  9 31  1  0  0  0  0
  9 37  1  0  0  0  0
 10 33  1  0  0  0  0
 10 38  1  0  0  0  0
 11 34  1  0  0  0  0
 11 65  1  0  0  0  0
 12 36  1  0  0  0  0
 12 66  1  0  0  0  0
 13 14  1  0  0  0  0
 13 16  1  0  0  0  0
 13 17  1  0  0  0  0
 14 15  1  0  0  0  0
 14 18  1  0  0  0  0
 14 39  1  0  0  0  0
 15 19  1  0  0  0  0
 15 40  1  0  0  0  0
 16 41  1  0  0  0  0
 16 42  1  0  0  0  0
 17 20  1  0  0  0  0
 17 43  1  0  0  0  0
 17 44  1  0  0  0  0
 18 45  1  0  0  0  0
 18 46  1  0  0  0  0
 19 26  2  0  0  0  0
 19 27  1  0  0  0  0
 20 28  2  0  0  0  0
 20 29  1  0  0  0  0
 21 22  1  0  0  0  0
 21 23  1  0  0  0  0
 21 48  1  0  0  0  0
 22 24  1  0  0  0  0
 22 49  1  0  0  0  0
 23 25  1  0  0  0  0
 23 50  1  0  0  0  0
 24 34  1  0  0  0  0
 24 51  1  0  0  0  0
 25 52  1  0  0  0  0
 26 33  1  0  0  0  0
 26 53  1  0  0  0  0
 27 35  2  0  0  0  0
 27 54  1  0  0  0  0
 28 31  1  0  0  0  0
 28 55  1  0  0  0  0
 29 32  2  0  0  0  0
 29 56  1  0  0  0  0
 30 31  2  0  0  0  0
 30 32  1  0  0  0  0
 32 58  1  0  0  0  0
 33 36  2  0  0  0  0
 34 59  1  0  0  0  0
 34 60  1  0  0  0  0
 35 36  1  0  0  0  0
 35 61  1  0  0  0  0
 37 67  1  0  0  0  0
 37 68  1  0  0  0  0
 37 69  1  0  0  0  0
 38 70  1  0  0  0  0
 38 71  1  0  0  0  0
 38 72  1  0  0  0  0
M  END
> <PUBCHEM_COMPOUND_CID>
14033815

> <PUBCHEM_CONFORMER_RMSD>
1.2

> <PUBCHEM_CONFORMER_DIVERSEORDER>
1
39
47
31
65
70
12
19
55
61
71
43
53
9
28
21
40
57
37
56
10
30
36
22
42
45
14
27
54
49
7
46
59
51
13
11
41
29
62
73
8
18
60
63
34
23
50
24
33
72
25
66
69
67
6
68
48
58
52
26
38
20
35
32
16
2
64
5
74
75
44
15
4
3
17

> <PUBCHEM_MMFF94_PARTIAL_CHARGES>
50
1 -0.56
10 -0.36
11 -0.68
12 -0.53
13 0.28
15 0.42
16 0.28
17 0.14
18 0.28
19 -0.14
2 -0.68
20 -0.14
21 0.28
22 0.28
23 0.28
24 0.28
25 0.56
26 -0.15
27 -0.15
28 -0.15
29 -0.15
3 -0.68
30 0.08
31 0.08
32 -0.15
33 0.08
34 0.28
35 -0.15
36 0.08
37 0.28
38 0.28
4 -0.56
47 0.4
5 -0.36
53 0.15
54 0.15
55 0.15
56 0.15
57 0.4
58 0.15
6 -0.68
61 0.15
62 0.4
63 0.4
64 0.4
65 0.4
66 0.45
7 -0.68
8 -0.68
9 -0.36

> <PUBCHEM_EFFECTIVE_ROTOR_COUNT>
11.2

> <PUBCHEM_PHARMACOPHORE_FEATURES>
22
1 1 acceptor
1 10 acceptor
1 11 acceptor
1 11 donor
1 12 donor
1 2 acceptor
1 2 donor
1 3 acceptor
1 3 donor
1 4 acceptor
1 5 acceptor
1 6 acceptor
1 6 donor
1 7 acceptor
1 7 donor
1 8 acceptor
1 8 donor
1 9 acceptor
5 1 13 14 15 16 rings
6 19 26 27 33 35 36 rings
6 20 28 29 30 31 32 rings
6 4 21 22 23 24 25 rings

> <PUBCHEM_HEAVY_ATOM_COUNT>
38

> <PUBCHEM_ATOM_DEF_STEREO_COUNT>
8

> <PUBCHEM_ATOM_UDEF_STEREO_COUNT>
0

> <PUBCHEM_BOND_DEF_STEREO_COUNT>
0

> <PUBCHEM_BOND_UDEF_STEREO_COUNT>
0

> <PUBCHEM_ISOTOPIC_ATOM_COUNT>
0

> <PUBCHEM_COMPONENT_COUNT>
1

> <PUBCHEM_CACTVS_TAUTO_COUNT>
3

> <PUBCHEM_CONFORMER_ID>
00D6239700000001

> <PUBCHEM_MMFF94_ENERGY>
144.7456

> <PUBCHEM_FEATURE_SELFOVERLAP>
111.734

> <PUBCHEM_SHAPE_FINGERPRINT>
10190206 1 12252473185784181902
10939801 23 18130505344802352878
11135609 12 18341607114463267624
11135609 99 18343019995758560710
117089 54 17830745610108331267
11963148 33 18197211653927925038
1361 4 18339082704158660995
13690498 29 18041842805232955989
13782708 43 18260835869036887712
14040221 299 17988652869435384495
14251751 18 18411981334608066156
14347332 77 18335986384899111393
15001296 14 18409167740066590034
15728490 51 18343580738468206314
15911013 46 17983009248554531603
19303781 99 17967534605271422771
20028762 73 18341618083984445046
20105231 36 17749399209189967723
2026 5 18041562408609821266
208703 8 18407755928291909499
21033648 29 13757807971065846753
21223535 225 15864345797035268141
22393880 68 17895189935888682688
23522609 53 18051170035571284657
23569943 247 18335708196237300891
2838139 119 7997425888475988937
439807 62 18411421726323953803
4756088 132 16978137096287720991
508180 173 12540704738123339215
5104073 3 17847066570793051784
513202 73 18259987055177446965
5718773 13 18408042888041395352
5874358 3 16951674798149544962
6081469 158 18334011701645855711
96874 4 18411136926568400114

> <PUBCHEM_SHAPE_MULTIPOLES>
711.59
22.68
4.64
1.58
4.97
1.59
0.36
20.5
-6.19
-0.01
1.27
-0.86
-0.86
-0.76

> <PUBCHEM_SHAPE_SELFOVERLAP>
1521.295

> <PUBCHEM_SHAPE_VOLUME>
393.1

> <PUBCHEM_COORDINATE_TYPE>
2
5
10

$$$$
