14035654
  -OEChem-03052615013D

 61 61  0     1  0  0  0  0  0999 V2000
   -2.3608    2.4185    0.2263 S   0  0  0  0  0  0  0  0  0  0  0  0
   -0.8123    2.2547   -0.2666 O   0  0  0  0  0  0  0  0  0  0  0  0
    3.3125   -2.1938    0.6995 O   0  0  0  0  0  0  0  0  0  0  0  0
    1.9913   -2.9570   -1.1469 O   0  0  0  0  0  0  0  0  0  0  0  0
   -3.1630    2.8991   -0.8817 O   0  0  0  0  0  0  0  0  0  0  0  0
   -2.3517    3.1006    1.5068 O   0  0  0  0  0  0  0  0  0  0  0  0
   -0.3332   -1.5638   -1.8439 O   0  0  0  0  0  0  0  0  0  0  0  0
    3.6041    2.0787   -0.2643 C   0  0  0  0  0  0  0  0  0  0  0  0
    2.1488    2.3800    0.1076 C   0  0  0  0  0  0  0  0  0  0  0  0
    4.4056    1.4473    0.8815 C   0  0  0  0  0  0  0  0  0  0  0  0
    1.3481    3.0389   -1.0325 C   0  0  2  0  0  0  0  0  0  0  0  0
    3.9155    0.0700    1.3686 C   0  0  1  0  0  0  0  0  0  0  0  0
   -0.0722    3.4233   -0.5986 C   0  0  0  0  0  0  0  0  0  0  0  0
    3.8135   -0.9490    0.2261 C   0  0  0  0  0  0  0  0  0  0  0  0
    1.3071    2.0952   -2.2415 C   0  0  0  0  0  0  0  0  0  0  0  0
    4.8519   -0.4447    2.4701 C   0  0  0  0  0  0  0  0  0  0  0  0
    3.1605   -3.1479   -0.3506 C   0  0  0  0  0  0  0  0  0  0  0  0
   -2.8923    0.7625    0.5279 C   0  0  0  0  0  0  0  0  0  0  0  0
   -2.7281    0.1973    1.7925 C   0  0  0  0  0  0  0  0  0  0  0  0
   -3.4773    0.0198   -0.4976 C   0  0  0  0  0  0  0  0  0  0  0  0
   -3.1491   -1.1108    2.0315 C   0  0  0  0  0  0  0  0  0  0  0  0
   -3.8982   -1.2884   -0.2585 C   0  0  0  0  0  0  0  0  0  0  0  0
   -3.7341   -1.8537    1.0061 C   0  0  0  0  0  0  0  0  0  0  0  0
    0.7963   -3.0931   -0.3892 C   0  0  0  0  0  0  0  0  0  0  0  0
   -0.3955   -2.8773   -1.3019 C   0  0  0  0  0  0  0  0  0  0  0  0
   -4.1830   -3.2528    1.2616 C   0  0  0  0  0  0  0  0  0  0  0  0
   -1.1045   -1.4537   -3.0321 C   0  0  0  0  0  0  0  0  0  0  0  0
    4.0944    3.0207   -0.5417 H   0  0  0  0  0  0  0  0  0  0  0  0
    3.6693    1.4356   -1.1457 H   0  0  0  0  0  0  0  0  0  0  0  0
    1.6460    1.4544    0.4111 H   0  0  0  0  0  0  0  0  0  0  0  0
    2.1367    3.0440    0.9812 H   0  0  0  0  0  0  0  0  0  0  0  0
    5.4485    1.3575    0.5495 H   0  0  0  0  0  0  0  0  0  0  0  0
    4.4147    2.1441    1.7296 H   0  0  0  0  0  0  0  0  0  0  0  0
    1.8616    3.9612   -1.3329 H   0  0  0  0  0  0  0  0  0  0  0  0
    2.9238    0.1775    1.8252 H   0  0  0  0  0  0  0  0  0  0  0  0
   -0.5829    3.9523   -1.4112 H   0  0  0  0  0  0  0  0  0  0  0  0
   -0.0326    4.0875    0.2720 H   0  0  0  0  0  0  0  0  0  0  0  0
    4.7995   -1.1020   -0.2292 H   0  0  0  0  0  0  0  0  0  0  0  0
    3.1281   -0.5847   -0.5457 H   0  0  0  0  0  0  0  0  0  0  0  0
    0.6162    2.4747   -3.0025 H   0  0  0  0  0  0  0  0  0  0  0  0
    2.2868    2.0140   -2.7216 H   0  0  0  0  0  0  0  0  0  0  0  0
    0.9773    1.0895   -1.9608 H   0  0  0  0  0  0  0  0  0  0  0  0
    4.9222    0.2796    3.2888 H   0  0  0  0  0  0  0  0  0  0  0  0
    4.4849   -1.3851    2.8938 H   0  0  0  0  0  0  0  0  0  0  0  0
    5.8618   -0.6182    2.0832 H   0  0  0  0  0  0  0  0  0  0  0  0
    3.1201   -4.1439    0.1045 H   0  0  0  0  0  0  0  0  0  0  0  0
    4.0356   -3.1340   -1.0103 H   0  0  0  0  0  0  0  0  0  0  0  0
   -2.2686    0.7548    2.6037 H   0  0  0  0  0  0  0  0  0  0  0  0
   -3.6072    0.4360   -1.4925 H   0  0  0  0  0  0  0  0  0  0  0  0
   -3.0155   -1.5403    3.0209 H   0  0  0  0  0  0  0  0  0  0  0  0
   -4.3511   -1.8579   -1.0658 H   0  0  0  0  0  0  0  0  0  0  0  0
    0.7844   -2.3394    0.4062 H   0  0  0  0  0  0  0  0  0  0  0  0
    0.7490   -4.0924    0.0570 H   0  0  0  0  0  0  0  0  0  0  0  0
   -5.2290   -3.2591    1.5833 H   0  0  0  0  0  0  0  0  0  0  0  0
   -4.0883   -3.8677    0.3599 H   0  0  0  0  0  0  0  0  0  0  0  0
   -3.5741   -3.7282    2.0381 H   0  0  0  0  0  0  0  0  0  0  0  0
   -0.3604   -3.6159   -2.1122 H   0  0  0  0  0  0  0  0  0  0  0  0
   -1.3320   -2.9978   -0.7498 H   0  0  0  0  0  0  0  0  0  0  0  0
   -1.1026   -0.4068   -3.3473 H   0  0  0  0  0  0  0  0  0  0  0  0
   -2.1380   -1.7659   -2.8558 H   0  0  0  0  0  0  0  0  0  0  0  0
   -0.6608   -2.0575   -3.8297 H   0  0  0  0  0  0  0  0  0  0  0  0
  1  2  1  0  0  0  0
  1  5  2  0  0  0  0
  1  6  2  0  0  0  0
  1 18  1  0  0  0  0
  2 13  1  0  0  0  0
  3 14  1  0  0  0  0
  3 17  1  0  0  0  0
  4 17  1  0  0  0  0
  4 24  1  0  0  0  0
  7 25  1  0  0  0  0
  7 27  1  0  0  0  0
  8  9  1  0  0  0  0
  8 10  1  0  0  0  0
  8 28  1  0  0  0  0
  8 29  1  0  0  0  0
  9 11  1  0  0  0  0
  9 30  1  0  0  0  0
  9 31  1  0  0  0  0
 10 12  1  0  0  0  0
 10 32  1  0  0  0  0
 10 33  1  0  0  0  0
 11 13  1  0  0  0  0
 11 15  1  0  0  0  0
 11 34  1  0  0  0  0
 12 14  1  0  0  0  0
 12 16  1  0  0  0  0
 12 35  1  0  0  0  0
 13 36  1  0  0  0  0
 13 37  1  0  0  0  0
 14 38  1  0  0  0  0
 14 39  1  0  0  0  0
 15 40  1  0  0  0  0
 15 41  1  0  0  0  0
 15 42  1  0  0  0  0
 16 43  1  0  0  0  0
 16 44  1  0  0  0  0
 16 45  1  0  0  0  0
 17 46  1  0  0  0  0
 17 47  1  0  0  0  0
 18 19  2  0  0  0  0
 18 20  1  0  0  0  0
 19 21  1  0  0  0  0
 19 48  1  0  0  0  0
 20 22  2  0  0  0  0
 20 49  1  0  0  0  0
 21 23  2  0  0  0  0
 21 50  1  0  0  0  0
 22 23  1  0  0  0  0
 22 51  1  0  0  0  0
 23 26  1  0  0  0  0
 24 25  1  0  0  0  0
 24 52  1  0  0  0  0
 24 53  1  0  0  0  0
 25 57  1  0  0  0  0
 25 58  1  0  0  0  0
 26 54  1  0  0  0  0
 26 55  1  0  0  0  0
 26 56  1  0  0  0  0
 27 59  1  0  0  0  0
 27 60  1  0  0  0  0
 27 61  1  0  0  0  0
M  END
> <PUBCHEM_COMPOUND_CID>
14035654

> <PUBCHEM_CONFORMER_RMSD>
1.2

> <PUBCHEM_CONFORMER_DIVERSEORDER>
4
121
169
107
18
136
171
139
89
153
27
87
78
137
115
174
42
81
94
164
144
92
100
118
15
48
77
8
131
181
163
58
38
173
24
95
177
21
44
93
120
74
47
148
68
69
108
23
1
97
126
35
51
29
53
33
73
146
79
60
76
155
64
96
11
3
129
19
22
109
13
54
63
101
91
49
34
159
132
85
6
124
103
172
168
140
114
45
113
41
158
84
88
32
102
116
147
9
170
162
56
150
90
67
16
26
156
175
145
36
43
141
176
7
125
55
66
86
157
143
37
130
104
111
52
151
57
83
105
65
40
119
2
112
71
70
149
14
165
17
10
72
106
98
25
128
12
31
99
46
50
61
110
117
134
75
160
123
167
178
166
127
142
138
133
154
30
122
59
80
135
152
82
179
28
161
62
180
39
5
20

> <PUBCHEM_MMFF94_PARTIAL_CHARGES>
24
1 1.49
13 0.28
14 0.28
17 0.56
18 -0.01
19 -0.15
2 -0.46
20 -0.15
21 -0.15
22 -0.15
23 -0.14
24 0.28
25 0.28
26 0.14
27 0.28
3 -0.56
4 -0.56
48 0.15
49 0.15
5 -0.65
50 0.15
51 0.15
6 -0.65
7 -0.56

> <PUBCHEM_EFFECTIVE_ROTOR_COUNT>
15

> <PUBCHEM_PHARMACOPHORE_FEATURES>
9
1 15 hydrophobe
1 16 hydrophobe
1 3 acceptor
1 4 acceptor
1 5 acceptor
1 6 acceptor
1 7 acceptor
5 8 9 10 11 12 hydrophobe
6 18 19 20 21 22 23 rings

> <PUBCHEM_HEAVY_ATOM_COUNT>
27

> <PUBCHEM_ATOM_DEF_STEREO_COUNT>
2

> <PUBCHEM_ATOM_UDEF_STEREO_COUNT>
0

> <PUBCHEM_BOND_DEF_STEREO_COUNT>
0

> <PUBCHEM_BOND_UDEF_STEREO_COUNT>
0

> <PUBCHEM_ISOTOPIC_ATOM_COUNT>
0

> <PUBCHEM_COMPONENT_COUNT>
1

> <PUBCHEM_CACTVS_TAUTO_COUNT>
1

> <PUBCHEM_CONFORMER_ID>
00D62AC600000004

> <PUBCHEM_MMFF94_ENERGY>
43.2607

> <PUBCHEM_FEATURE_SELFOVERLAP>
45.727

> <PUBCHEM_SHAPE_FINGERPRINT>
10675989 125 15674911381220878551
12156800 1 14218360745377428108
12422481 6 18340223899040046785
12978246 48 18340483482130482522
13122387 1 18411143549555072402
13402501 40 17691123734647616686
15003188 3 17048536106645224877
19319366 153 17177444447566246228
21315764 21 17396096555301136837
35225 105 17202745116364271772
445580 102 18263367039261309411
463206 1 17831304161302272979
469060 322 18055319626454611494
5309563 4 18046917244852968745
6287921 2 18271821081109500690

> <PUBCHEM_SHAPE_MULTIPOLES>
524.28
9.23
5.32
2.29
2.87
0.33
-0.56
-2.93
5.68
0.12
-1.34
-0.01
-0.7
-0.12

> <PUBCHEM_SHAPE_SELFOVERLAP>
1014.8

> <PUBCHEM_SHAPE_VOLUME>
319

> <PUBCHEM_COORDINATE_TYPE>
2
5
10

$$$$
