14126938
  -OEChem-03052615013D

 18 18  0     0  0  0  0  0  0999 V2000
   -2.2230    2.3505    0.0015 Cl  0  0  0  0  0  0  0  0  0  0  0  0
   -2.2393   -2.1237    0.0005 F   0  0  0  0  0  0  0  0  0  0  0  0
   -3.0940   -0.4504    1.0838 F   0  0  0  0  0  0  0  0  0  0  0  0
   -3.0761   -0.4391   -1.0907 F   0  0  0  0  0  0  0  0  0  0  0  0
    2.4924   -2.2507   -0.0002 O   0  5  0  0  0  0  0  0  0  0  0  0
    3.7044   -0.4205    0.0000 O   0  0  0  0  0  0  0  0  0  0  0  0
    0.3244    1.9455    0.0011 N   0  0  0  0  0  0  0  0  0  0  0  0
    2.5926   -1.0007    0.0002 N   0  3  0  0  0  0  0  0  0  0  0  0
    2.6894    1.8235    0.0012 N   0  0  0  0  0  0  0  0  0  0  0  0
   -0.9939   -0.0811    0.0003 C   0  0  0  0  0  0  0  0  0  0  0  0
    0.1677   -0.8454   -0.0002 C   0  0  0  0  0  0  0  0  0  0  0  0
    1.4075   -0.2160    0.0002 C   0  0  0  0  0  0  0  0  0  0  0  0
    1.4313    1.1695    0.0009 C   0  0  0  0  0  0  0  0  0  0  0  0
   -2.3207   -0.7597    0.0006 C   0  0  0  0  0  0  0  0  0  0  0  0
   -0.8626    1.2983    0.0010 C   0  0  0  0  0  0  0  0  0  0  0  0
    0.0887   -1.9296   -0.0005 H   0  0  0  0  0  0  0  0  0  0  0  0
    3.4509    1.4029    0.5188 H   0  0  0  0  0  0  0  0  0  0  0  0
    2.6602    2.8362   -0.0210 H   0  0  0  0  0  0  0  0  0  0  0  0
  1 15  1  0  0  0  0
  2 14  1  0  0  0  0
  3 14  1  0  0  0  0
  4 14  1  0  0  0  0
  5  8  1  0  0  0  0
  6  8  2  0  0  0  0
  7 13  1  0  0  0  0
  7 15  2  0  0  0  0
  8 12  1  0  0  0  0
  9 13  1  0  0  0  0
  9 17  1  0  0  0  0
  9 18  1  0  0  0  0
 10 11  2  0  0  0  0
 10 14  1  0  0  0  0
 10 15  1  0  0  0  0
 11 12  1  0  0  0  0
 11 16  1  0  0  0  0
 12 13  2  0  0  0  0
M  CHG  2   5  -1   8   1
M  END
> <PUBCHEM_COMPOUND_CID>
14126938

> <PUBCHEM_CONFORMER_RMSD>
0.6

> <PUBCHEM_CONFORMER_DIVERSEORDER>
1

> <PUBCHEM_MMFF94_PARTIAL_CHARGES>
18
1 -0.18
10 -0.14
11 -0.15
12 0.13
13 0.41
14 1.16
15 0.49
16 0.15
17 0.4
18 0.4
2 -0.34
3 -0.34
4 -0.34
5 -0.52
6 -0.52
7 -0.62
8 0.91
9 -0.9

> <PUBCHEM_EFFECTIVE_ROTOR_COUNT>
2

> <PUBCHEM_PHARMACOPHORE_FEATURES>
7
1 5 acceptor
1 5 anion
1 6 acceptor
1 7 acceptor
1 9 cation
1 9 donor
6 7 10 11 12 13 15 rings

> <PUBCHEM_HEAVY_ATOM_COUNT>
15

> <PUBCHEM_ATOM_DEF_STEREO_COUNT>
0

> <PUBCHEM_ATOM_UDEF_STEREO_COUNT>
0

> <PUBCHEM_BOND_DEF_STEREO_COUNT>
0

> <PUBCHEM_BOND_UDEF_STEREO_COUNT>
0

> <PUBCHEM_ISOTOPIC_ATOM_COUNT>
0

> <PUBCHEM_COMPONENT_COUNT>
1

> <PUBCHEM_CACTVS_TAUTO_COUNT>
2

> <PUBCHEM_CONFORMER_ID>
00D78F5A00000001

> <PUBCHEM_MMFF94_ENERGY>
45.6826

> <PUBCHEM_FEATURE_SELFOVERLAP>
35.602

> <PUBCHEM_SHAPE_FINGERPRINT>
10967382 1 18050287273408328198
11206711 2 18336548226729657404
12251169 10 18271536333409629355
12932764 1 17775002422666288152
13140716 1 17762337315814239280
15442244 35 18195245516557222984
16945 1 18338517572245659172
17844478 74 17968386731420456937
193761 8 18410856533981203808
19973954 147 18410011026666429348
20201158 50 18408035230104442634
20645477 70 18411975901543541471
20711985 365 18410572851533513477
20871998 184 18200594674827751799
21501502 16 18411419488219029980
2334 1 18410575084779532704
23463225 33 18411140203764921300
23552423 10 18334297565214173972
23559900 14 18125436403136143926
2748010 2 18410569557177708948
63268167 104 18267867353328440689
7364860 26 18342457092828571232
8809292 202 18187650257552051130

> <PUBCHEM_SHAPE_MULTIPOLES>
262.06
5.05
2.39
0.68
1.27
0.42
0
-1.16
0
-0.26
0
-0.38
-0.05
0

> <PUBCHEM_SHAPE_SELFOVERLAP>
550.855

> <PUBCHEM_SHAPE_VOLUME>
151.2

> <PUBCHEM_COORDINATE_TYPE>
2
5
10

$$$$
