14139904
  -OEChem-03052615063D

 41 44  0     1  0  0  0  0  0999 V2000
   -0.7914   -2.6054   -0.0052 O   0  0  0  0  0  0  0  0  0  0  0  0
    2.6013    2.1914   -1.2785 O   0  0  0  0  0  0  0  0  0  0  0  0
   -1.3471   -0.3920   -0.4357 N   0  0  0  0  0  0  0  0  0  0  0  0
    1.5391    0.7262    0.1827 N   0  0  0  0  0  0  0  0  0  0  0  0
   -0.6446    1.3512    1.2606 C   0  0  1  0  0  0  0  0  0  0  0  0
    0.1741   -0.9629    1.4389 C   0  0  1  0  0  0  0  0  0  0  0  0
   -1.5657    0.9687    0.0854 C   0  0  2  0  0  0  0  0  0  0  0  0
    1.5780   -0.5360    0.9440 C   0  0  1  0  0  0  0  0  0  0  0  0
   -0.4909    0.1698    2.2102 C   0  0  0  0  0  0  0  0  0  0  0  0
    0.7368    1.8043    0.7642 C   0  0  0  0  0  0  0  0  0  0  0  0
   -0.7200   -1.4081    0.2836 C   0  0  0  0  0  0  0  0  0  0  0  0
   -3.0541    1.1052    0.4687 C   0  0  0  0  0  0  0  0  0  0  0  0
    2.2928   -1.6722    0.2070 C   0  0  0  0  0  0  0  0  0  0  0  0
   -2.1376   -0.7217   -1.6208 C   0  0  0  0  0  0  0  0  0  0  0  0
   -3.9625    0.7620   -0.7176 C   0  0  0  0  0  0  0  0  0  0  0  0
   -3.6264   -0.6109   -1.3028 C   0  0  0  0  0  0  0  0  0  0  0  0
    3.6115   -1.1651   -0.3430 C   0  0  0  0  0  0  0  0  0  0  0  0
    2.4796    1.0621   -0.7953 C   0  0  0  0  0  0  0  0  0  0  0  0
    3.3269   -0.0666   -1.3463 C   0  0  0  0  0  0  0  0  0  0  0  0
   -1.0857    2.1978    1.8019 H   0  0  0  0  0  0  0  0  0  0  0  0
    0.2785   -1.8217    2.1148 H   0  0  0  0  0  0  0  0  0  0  0  0
   -1.3740    1.6583   -0.7480 H   0  0  0  0  0  0  0  0  0  0  0  0
    2.1823   -0.3016    1.8328 H   0  0  0  0  0  0  0  0  0  0  0  0
   -1.4650   -0.1482    2.5990 H   0  0  0  0  0  0  0  0  0  0  0  0
    0.1204    0.4524    3.0759 H   0  0  0  0  0  0  0  0  0  0  0  0
    0.6280    2.6231    0.0437 H   0  0  0  0  0  0  0  0  0  0  0  0
    1.3184    2.2044    1.6047 H   0  0  0  0  0  0  0  0  0  0  0  0
   -3.2673    2.1278    0.8013 H   0  0  0  0  0  0  0  0  0  0  0  0
   -3.2982    0.4352    1.3019 H   0  0  0  0  0  0  0  0  0  0  0  0
    1.6902   -2.0515   -0.6260 H   0  0  0  0  0  0  0  0  0  0  0  0
    2.4673   -2.5113    0.8901 H   0  0  0  0  0  0  0  0  0  0  0  0
   -1.9037   -1.7316   -1.9728 H   0  0  0  0  0  0  0  0  0  0  0  0
   -1.8578   -0.0206   -2.4156 H   0  0  0  0  0  0  0  0  0  0  0  0
   -3.8468    1.5268   -1.4956 H   0  0  0  0  0  0  0  0  0  0  0  0
   -5.0109    0.7837   -0.4001 H   0  0  0  0  0  0  0  0  0  0  0  0
   -3.9039   -1.3862   -0.5778 H   0  0  0  0  0  0  0  0  0  0  0  0
   -4.2171   -0.7857   -2.2084 H   0  0  0  0  0  0  0  0  0  0  0  0
    4.1564   -1.9818   -0.8288 H   0  0  0  0  0  0  0  0  0  0  0  0
    4.2423   -0.7870    0.4704 H   0  0  0  0  0  0  0  0  0  0  0  0
    2.8033   -0.4729   -2.2198 H   0  0  0  0  0  0  0  0  0  0  0  0
    4.2761    0.3557   -1.6954 H   0  0  0  0  0  0  0  0  0  0  0  0
  1 11  2  0  0  0  0
  2 18  2  0  0  0  0
  3  7  1  0  0  0  0
  3 11  1  0  0  0  0
  3 14  1  0  0  0  0
  4  8  1  0  0  0  0
  4 10  1  0  0  0  0
  4 18  1  0  0  0  0
  5  7  1  0  0  0  0
  5  9  1  0  0  0  0
  5 10  1  0  0  0  0
  5 20  1  0  0  0  0
  6  8  1  0  0  0  0
  6  9  1  0  0  0  0
  6 11  1  0  0  0  0
  6 21  1  0  0  0  0
  7 12  1  0  0  0  0
  7 22  1  0  0  0  0
  8 13  1  0  0  0  0
  8 23  1  0  0  0  0
  9 24  1  0  0  0  0
  9 25  1  0  0  0  0
 10 26  1  0  0  0  0
 10 27  1  0  0  0  0
 12 15  1  0  0  0  0
 12 28  1  0  0  0  0
 12 29  1  0  0  0  0
 13 17  1  0  0  0  0
 13 30  1  0  0  0  0
 13 31  1  0  0  0  0
 14 16  1  0  0  0  0
 14 32  1  0  0  0  0
 14 33  1  0  0  0  0
 15 16  1  0  0  0  0
 15 34  1  0  0  0  0
 15 35  1  0  0  0  0
 16 36  1  0  0  0  0
 16 37  1  0  0  0  0
 17 19  1  0  0  0  0
 17 38  1  0  0  0  0
 17 39  1  0  0  0  0
 18 19  1  0  0  0  0
 19 40  1  0  0  0  0
 19 41  1  0  0  0  0
M  END
> <PUBCHEM_COMPOUND_CID>
14139904

> <PUBCHEM_CONFORMER_RMSD>
0.6

> <PUBCHEM_CONFORMER_DIVERSEORDER>
1

> <PUBCHEM_MMFF94_PARTIAL_CHARGES>
12
1 -0.57
10 0.3
11 0.57
14 0.3
18 0.57
19 0.06
2 -0.57
3 -0.66
4 -0.66
6 0.06
7 0.3
8 0.3

> <PUBCHEM_EFFECTIVE_ROTOR_COUNT>
1.8

> <PUBCHEM_PHARMACOPHORE_FEATURES>
6
1 1 acceptor
1 2 acceptor
6 3 5 6 7 9 11 rings
6 3 7 12 14 15 16 rings
6 4 5 6 8 9 10 rings
6 4 8 13 17 18 19 rings

> <PUBCHEM_HEAVY_ATOM_COUNT>
19

> <PUBCHEM_ATOM_DEF_STEREO_COUNT>
4

> <PUBCHEM_ATOM_UDEF_STEREO_COUNT>
0

> <PUBCHEM_BOND_DEF_STEREO_COUNT>
0

> <PUBCHEM_BOND_UDEF_STEREO_COUNT>
0

> <PUBCHEM_ISOTOPIC_ATOM_COUNT>
0

> <PUBCHEM_COMPONENT_COUNT>
1

> <PUBCHEM_CACTVS_TAUTO_COUNT>
1

> <PUBCHEM_CONFORMER_ID>
00D7C20000000001

> <PUBCHEM_MMFF94_ENERGY>
38.611

> <PUBCHEM_FEATURE_SELFOVERLAP>
32.051

> <PUBCHEM_SHAPE_FINGERPRINT>
10062212 137 18196369221698925707
10465860 71 17846778507409835261
10863032 1 18113908185946046211
10948715 1 17458631145849889517
12423570 1 16823043820982125586
12633257 1 8068937084694262557
12654903 92 17988914561739409669
13134695 92 16519021382658862280
13764800 53 14562535076161541613
14115302 16 18060134314878966183
14817 1 11359107334397794248
15775835 57 17821450144672799318
16752209 62 17773867598429503105
16945 1 18197494236763280209
17834072 14 15051729763811318498
18186145 218 18040712558766072357
18981168 100 15936683865169395458
19862831 5 18411418397228375413
20645476 183 18408322168416794927
21731516 1 16414654781162159534
22802520 49 18127968818157133523
23227448 37 15359131332042166359
23382010 3 18335134340786309873
23402539 116 18268703910200525438
23419403 2 15186841386644160752
23557571 272 18054493975058749530
23559900 14 17346025664041724898
25 1 17386009425306364184
2748010 2 17043721886287110579
3082319 5 18342174479236894093
3323516 105 18336548334488909355
3797600 57 12468644901896165492
427121 178 13551752847363201997
549884 4 18341884221189336357
6442390 28 16081382859760322873
7364860 26 17273111700004678569
81228 2 14979135590940350907
9981440 41 17831294274678350336

> <PUBCHEM_SHAPE_MULTIPOLES>
369.31
5.81
2.05
1.66
1
0.13
0.24
0.2
-3.22
-0.44
-0.01
0
-0.15
-0.88

> <PUBCHEM_SHAPE_SELFOVERLAP>
792.414

> <PUBCHEM_SHAPE_VOLUME>
196.9

> <PUBCHEM_COORDINATE_TYPE>
2
5
10

$$$$
