14243689
  -OEChem-03052615023D

 54 57  0     1  0  0  0  0  0999 V2000
   -4.6195   -0.2587    0.9933 Cl  0  0  0  0  0  0  0  0  0  0  0  0
    2.6312    1.9061    1.5288 S   0  0  1  0  0  0  0  0  0  0  0  0
    1.5107   -0.4562    0.5657 O   0  0  0  0  0  0  0  0  0  0  0  0
   -2.4481   -0.8630   -0.9144 O   0  0  0  0  0  0  0  0  0  0  0  0
    2.3646    3.2601    0.9355 O   0  0  0  0  0  0  0  0  0  0  0  0
    0.2324   -2.2078   -0.2354 N   0  0  0  0  0  0  0  0  0  0  0  0
   -0.6631    0.0530    0.3088 C   0  0  0  0  0  0  0  0  0  0  0  0
    0.2946   -0.9262    0.1829 C   0  0  0  0  0  0  0  0  0  0  0  0
    1.2842    0.8019    0.9207 C   0  0  0  0  0  0  0  0  0  0  0  0
    0.0074    1.1982    0.8006 C   0  0  0  0  0  0  0  0  0  0  0  0
   -2.0544   -0.0920   -0.0048 C   0  0  0  0  0  0  0  0  0  0  0  0
   -3.1381    0.7219    0.7530 C   0  0  1  0  0  0  0  0  0  0  0  0
   -0.9116   -3.0685   -0.1018 C   0  0  0  0  0  0  0  0  0  0  0  0
   -3.5087    2.0080    0.0533 C   0  0  0  0  0  0  0  0  0  0  0  0
    1.4393   -2.8294   -0.8245 C   0  0  0  0  0  0  0  0  0  0  0  0
    4.0437    1.2373    0.6504 C   0  0  0  0  0  0  0  0  0  0  0  0
   -1.7704   -2.8807    0.9638 C   0  0  0  0  0  0  0  0  0  0  0  0
   -1.1197   -4.0577   -1.0432 C   0  0  0  0  0  0  0  0  0  0  0  0
   -3.9276    3.0936    0.8055 C   0  0  0  0  0  0  0  0  0  0  0  0
   -3.4233    2.0782   -1.3278 C   0  0  0  0  0  0  0  0  0  0  0  0
    4.3840    1.7367   -0.6068 C   0  0  0  0  0  0  0  0  0  0  0  0
    4.8018    0.2166    1.2239 C   0  0  0  0  0  0  0  0  0  0  0  0
    6.2404    0.1945   -0.7170 C   0  0  0  0  0  0  0  0  0  0  0  0
   -2.8808   -3.7151    1.0931 C   0  0  0  0  0  0  0  0  0  0  0  0
   -2.2301   -4.8920   -0.9141 C   0  0  0  0  0  0  0  0  0  0  0  0
    5.4823    1.2152   -1.2906 C   0  0  0  0  0  0  0  0  0  0  0  0
    5.9002   -0.3049    0.5402 C   0  0  0  0  0  0  0  0  0  0  0  0
   -4.2704    4.2814    0.1592 C   0  0  0  0  0  0  0  0  0  0  0  0
   -3.7658    3.2658   -1.9741 C   0  0  0  0  0  0  0  0  0  0  0  0
   -3.1106   -4.7206    0.1542 C   0  0  0  0  0  0  0  0  0  0  0  0
   -4.1895    4.3674   -1.2306 C   0  0  0  0  0  0  0  0  0  0  0  0
    7.4150   -0.3631   -1.4478 C   0  0  0  0  0  0  0  0  0  0  0  0
   -0.4136    2.1677    1.0259 H   0  0  0  0  0  0  0  0  0  0  0  0
   -2.7525    0.9303    1.7577 H   0  0  0  0  0  0  0  0  0  0  0  0
    2.3570   -2.2699   -0.6109 H   0  0  0  0  0  0  0  0  0  0  0  0
    1.3481   -2.8779   -1.9153 H   0  0  0  0  0  0  0  0  0  0  0  0
    1.5977   -3.8389   -0.4267 H   0  0  0  0  0  0  0  0  0  0  0  0
   -1.5924   -2.1476    1.7443 H   0  0  0  0  0  0  0  0  0  0  0  0
   -0.4679   -4.2080   -1.8974 H   0  0  0  0  0  0  0  0  0  0  0  0
   -3.9944    3.0362    1.8881 H   0  0  0  0  0  0  0  0  0  0  0  0
   -3.1153    1.2435   -1.9464 H   0  0  0  0  0  0  0  0  0  0  0  0
    3.8064    2.5276   -1.0775 H   0  0  0  0  0  0  0  0  0  0  0  0
    4.5488   -0.1832    2.2025 H   0  0  0  0  0  0  0  0  0  0  0  0
    5.7377    1.6128   -2.2693 H   0  0  0  0  0  0  0  0  0  0  0  0
    6.4840   -1.0990    0.9982 H   0  0  0  0  0  0  0  0  0  0  0  0
   -3.5595   -3.5903    1.9318 H   0  0  0  0  0  0  0  0  0  0  0  0
   -2.4117   -5.6726   -1.6471 H   0  0  0  0  0  0  0  0  0  0  0  0
   -4.6005    5.1389    0.7381 H   0  0  0  0  0  0  0  0  0  0  0  0
   -3.7066    3.3324   -3.0566 H   0  0  0  0  0  0  0  0  0  0  0  0
   -3.9741   -5.3714    0.2558 H   0  0  0  0  0  0  0  0  0  0  0  0
   -4.4573    5.2918   -1.7339 H   0  0  0  0  0  0  0  0  0  0  0  0
    8.3194    0.1950   -1.1864 H   0  0  0  0  0  0  0  0  0  0  0  0
    7.2690   -0.3071   -2.5320 H   0  0  0  0  0  0  0  0  0  0  0  0
    7.5697   -1.4188   -1.1999 H   0  0  0  0  0  0  0  0  0  0  0  0
  1 12  1  0  0  0  0
  2  5  2  0  0  0  0
  2  9  1  0  0  0  0
  2 16  1  0  0  0  0
  3  8  1  0  0  0  0
  3  9  1  0  0  0  0
  4 11  2  0  0  0  0
  6  8  1  0  0  0  0
  6 13  1  0  0  0  0
  6 15  1  0  0  0  0
  7  8  2  0  0  0  0
  7 10  1  0  0  0  0
  7 11  1  0  0  0  0
  9 10  2  0  0  0  0
 10 33  1  0  0  0  0
 11 12  1  0  0  0  0
 12 14  1  0  0  0  0
 12 34  1  0  0  0  0
 13 17  2  0  0  0  0
 13 18  1  0  0  0  0
 14 19  2  0  0  0  0
 14 20  1  0  0  0  0
 15 35  1  0  0  0  0
 15 36  1  0  0  0  0
 15 37  1  0  0  0  0
 16 21  2  0  0  0  0
 16 22  1  0  0  0  0
 17 24  1  0  0  0  0
 17 38  1  0  0  0  0
 18 25  2  0  0  0  0
 18 39  1  0  0  0  0
 19 28  1  0  0  0  0
 19 40  1  0  0  0  0
 20 29  2  0  0  0  0
 20 41  1  0  0  0  0
 21 26  1  0  0  0  0
 21 42  1  0  0  0  0
 22 27  2  0  0  0  0
 22 43  1  0  0  0  0
 23 26  2  0  0  0  0
 23 27  1  0  0  0  0
 23 32  1  0  0  0  0
 24 30  2  0  0  0  0
 24 46  1  0  0  0  0
 25 30  1  0  0  0  0
 25 47  1  0  0  0  0
 26 44  1  0  0  0  0
 27 45  1  0  0  0  0
 28 31  2  0  0  0  0
 28 48  1  0  0  0  0
 29 31  1  0  0  0  0
 29 49  1  0  0  0  0
 30 50  1  0  0  0  0
 31 51  1  0  0  0  0
 32 52  1  0  0  0  0
 32 53  1  0  0  0  0
 32 54  1  0  0  0  0
M  END
> <PUBCHEM_COMPOUND_CID>
14243689

> <PUBCHEM_CONFORMER_RMSD>
1.2

> <PUBCHEM_CONFORMER_DIVERSEORDER>
1
130
247
86
122
75
126
16
216
82
111
94
194
91
106
182
41
214
208
48
230
145
240
15
117
161
167
132
226
103
190
72
249
143
250
254
108
76
10
188
80
114
233
124
223
263
181
78
156
115
224
235
196
147
221
125
109
158
198
133
219
141
222
164
255
50
39
195
20
43
154
29
180
67
90
98
128
44
71
105
24
210
19
260
40
69
102
177
13
213
242
28
186
231
149
184
100
99
21
84
258
205
202
96
58
211
215
70
56
46
27
209
243
127
203
83
107
228
66
248
168
157
187
49
160
212
120
116
257
252
175
142
55
253
225
217
89
60
134
79
245
238
170
135
110
63
65
201
77
139
38
31
97
144
232
192
138
259
234
173
171
193
88
112
163
159
197
199
166
207
165
68
140
155
146
189
229
136
153
185
150
174
151
172
73
23
246
12
162
62
251
101
220
45
5
227
30
92
47
35
178
57
129
239
119
51
36
169
81
32
33
6
121
87
18
11
256
183
113
152
25
244
2
74
218
179
59
7
3
237
85
54
52
8
241
14
148
123
95
176
26
131
137
191
37
262
118
4
236
64
206
204
200
93
104
261
22
34
9
53
42
61
17

> <PUBCHEM_MMFF94_PARTIAL_CHARGES>
47
1 -0.29
10 -0.15
11 0.6
12 0.49
13 0.1
14 -0.14
15 0.37
16 0.06
17 -0.15
18 -0.15
19 -0.15
2 0.43
20 -0.15
21 -0.15
22 -0.15
23 -0.14
24 -0.15
25 -0.15
26 -0.15
27 -0.15
28 -0.15
29 -0.15
3 -0.28
30 -0.15
31 -0.15
32 0.14
33 0.15
38 0.15
39 0.15
4 -0.57
40 0.15
41 0.15
42 0.15
43 0.15
44 0.15
45 0.15
46 0.15
47 0.15
48 0.15
49 0.15
5 -0.5
50 0.15
51 0.15
6 -0.55
7 -0.09
8 0.22
9 0.15

> <PUBCHEM_EFFECTIVE_ROTOR_COUNT>
7

> <PUBCHEM_PHARMACOPHORE_FEATURES>
8
1 3 acceptor
1 4 acceptor
1 5 acceptor
1 6 cation
5 3 7 8 9 10 rings
6 13 17 18 24 25 30 rings
6 14 19 20 28 29 31 rings
6 16 21 22 23 26 27 rings

> <PUBCHEM_HEAVY_ATOM_COUNT>
32

> <PUBCHEM_ATOM_DEF_STEREO_COUNT>
0

> <PUBCHEM_ATOM_UDEF_STEREO_COUNT>
2

> <PUBCHEM_BOND_DEF_STEREO_COUNT>
0

> <PUBCHEM_BOND_UDEF_STEREO_COUNT>
0

> <PUBCHEM_ISOTOPIC_ATOM_COUNT>
0

> <PUBCHEM_COMPONENT_COUNT>
1

> <PUBCHEM_CACTVS_TAUTO_COUNT>
2

> <PUBCHEM_CONFORMER_ID>
00D9576900000001

> <PUBCHEM_MMFF94_ENERGY>
106.1572

> <PUBCHEM_FEATURE_SELFOVERLAP>
40.598

> <PUBCHEM_SHAPE_FINGERPRINT>
10165383 225 18340497677393424481
105312 117 18409446956006105900
10675989 125 17619071629182650365
11331351 85 17697324271997350859
11763715 3 17829341528498342294
11796584 16 18413111646274490218
11991303 11 18334012778785919311
12293681 160 17845368843303913400
12422481 6 17700152155057082250
12643181 29 18341616985068649982
12788726 201 17972867339935243138
13617811 41 17545037564620627396
13690498 29 18195537106572318958
13757389 114 18335148578693139148
13944108 23 17327450329090918957
14202776 33 18114758134436307900
14347332 77 18195244653485503018
14713325 29 18336552719450260003
14790565 3 18267584611336715608
14856354 85 16733281083175896872
15042514 8 18194966464274721179
15230672 131 18263929844035915558
15297060 5 18196658401768857544
15439362 3 18195526983302610790
15664445 248 16897935457844050556
17899979 129 17833264225811166989
21033648 144 18200306762107229120
21033648 29 18341599400307210280
21120745 212 18045792444479028149
21307412 95 17987253157627522670
22440779 20 17318204914391649746
23559900 14 18060137683199365736
24180151 248 17834404788614908652
24771750 20 18050008792498849847
3103668 31 18265041604841530255
3298306 158 18342735170375075644
38695281 34 18265613186824348796
4015057 19 16486959726899444288
4058900 60 18121503453330721833
4107672 100 18336280002576153646
4394409 98 18049454643171275950
44062 13 18340772641209880226
497634 4 15864072117260486953
508706 21 18341332270773780566
513202 73 18193566776903008746
581034 39 18334582308524165877
6700243 42 17838377225272562844
7399639 24 17193464332325827592

> <PUBCHEM_SHAPE_MULTIPOLES>
641.68
13.27
6.84
1.48
24.08
4.84
0.25
-8.98
3.17
-12.6
1.61
0.16
-0.59
1.79

> <PUBCHEM_SHAPE_SELFOVERLAP>
1380.45

> <PUBCHEM_SHAPE_VOLUME>
355.4

> <PUBCHEM_COORDINATE_TYPE>
2
5
10

$$$$
