14275037
  -OEChem-03052615023D

 61 62  0     0  0  0  0  0  0999 V2000
    4.1888    2.8090    1.0011 F   0  0  0  0  0  0  0  0  0  0  0  0
    1.8475   -1.2454    0.2136 F   0  0  0  0  0  0  0  0  0  0  0  0
    4.1378   -2.3764   -0.7372 F   0  0  0  0  0  0  0  0  0  0  0  0
    6.4737    1.6676    0.0476 F   0  0  0  0  0  0  0  0  0  0  0  0
    6.4531   -0.9241   -0.8220 F   0  0  0  0  0  0  0  0  0  0  0  0
   -5.5472    0.6674   -1.5916 O   0  0  0  0  0  0  0  0  0  0  0  0
    1.0287    2.0366    0.0651 O   0  0  0  0  0  0  0  0  0  0  0  0
   -0.5723    1.9965   -2.2070 O   0  0  0  0  0  0  0  0  0  0  0  0
   -5.2050    1.0671    0.6722 N   0  0  0  0  0  0  0  0  0  0  0  0
   -2.9622   -3.0378    0.6630 C   0  0  0  0  0  0  0  0  0  0  0  0
   -4.0270   -2.2272   -0.0813 C   0  0  0  0  0  0  0  0  0  0  0  0
   -1.7188   -3.3281   -0.1807 C   0  0  0  0  0  0  0  0  0  0  0  0
   -5.2371   -1.8732    0.7853 C   0  0  0  0  0  0  0  0  0  0  0  0
   -0.6597   -4.0750    0.6332 C   0  0  0  0  0  0  0  0  0  0  0  0
   -6.2325   -1.0047    0.0176 C   0  0  0  0  0  0  0  0  0  0  0  0
    0.5989   -4.3323   -0.1951 C   0  0  0  0  0  0  0  0  0  0  0  0
   -5.6324    0.3213   -0.4166 C   0  0  0  0  0  0  0  0  0  0  0  0
    1.6406   -5.1037    0.5993 C   0  0  0  0  0  0  0  0  0  0  0  0
   -4.5940    2.3710    0.5494 C   0  0  0  0  0  0  0  0  0  0  0  0
   -3.1011    2.2818    0.4171 C   0  0  0  0  0  0  0  0  0  0  0  0
   -2.5175    2.1789   -0.8456 C   0  0  0  0  0  0  0  0  0  0  0  0
   -2.2977    2.3019    1.5572 C   0  0  0  0  0  0  0  0  0  0  0  0
   -1.1304    2.0963   -0.9684 C   0  0  0  0  0  0  0  0  0  0  0  0
   -0.3270    2.1164    0.1718 C   0  0  0  0  0  0  0  0  0  0  0  0
   -0.9107    2.2191    1.4345 C   0  0  0  0  0  0  0  0  0  0  0  0
    1.7287    1.4220    1.1450 C   0  0  0  0  0  0  0  0  0  0  0  0
    2.9878    0.7969    0.6200 C   0  0  0  0  0  0  0  0  0  0  0  0
    4.1688    1.5377    0.5768 C   0  0  0  0  0  0  0  0  0  0  0  0
    2.9773   -0.5255    0.1763 C   0  0  0  0  0  0  0  0  0  0  0  0
    4.1481   -1.1069   -0.3107 C   0  0  0  0  0  0  0  0  0  0  0  0
    5.3394    0.9564    0.0895 C   0  0  0  0  0  0  0  0  0  0  0  0
   -0.3759    0.6823   -2.7253 C   0  0  0  0  0  0  0  0  0  0  0  0
    5.3291   -0.3659   -0.3543 C   0  0  0  0  0  0  0  0  0  0  0  0
   -3.4016   -3.9838    1.0025 H   0  0  0  0  0  0  0  0  0  0  0  0
   -2.6631   -2.4864    1.5633 H   0  0  0  0  0  0  0  0  0  0  0  0
   -4.3606   -2.7924   -0.9602 H   0  0  0  0  0  0  0  0  0  0  0  0
   -3.5541   -1.3116   -0.4560 H   0  0  0  0  0  0  0  0  0  0  0  0
   -2.0010   -3.9208   -1.0589 H   0  0  0  0  0  0  0  0  0  0  0  0
   -1.2989   -2.3837   -0.5484 H   0  0  0  0  0  0  0  0  0  0  0  0
   -5.7401   -2.7965    1.0968 H   0  0  0  0  0  0  0  0  0  0  0  0
   -4.9018   -1.3763    1.7021 H   0  0  0  0  0  0  0  0  0  0  0  0
   -1.0728   -5.0285    0.9842 H   0  0  0  0  0  0  0  0  0  0  0  0
   -0.3970   -3.4892    1.5225 H   0  0  0  0  0  0  0  0  0  0  0  0
   -7.1073   -0.7973    0.6449 H   0  0  0  0  0  0  0  0  0  0  0  0
   -6.5886   -1.5318   -0.8750 H   0  0  0  0  0  0  0  0  0  0  0  0
    1.0274   -3.3849   -0.5365 H   0  0  0  0  0  0  0  0  0  0  0  0
    0.3389   -4.9071   -1.0919 H   0  0  0  0  0  0  0  0  0  0  0  0
    2.5300   -5.2801   -0.0137 H   0  0  0  0  0  0  0  0  0  0  0  0
    1.2506   -6.0748    0.9203 H   0  0  0  0  0  0  0  0  0  0  0  0
    1.9474   -4.5443    1.4889 H   0  0  0  0  0  0  0  0  0  0  0  0
   -5.3445    0.7087    1.6117 H   0  0  0  0  0  0  0  0  0  0  0  0
   -5.0228    2.8940   -0.3136 H   0  0  0  0  0  0  0  0  0  0  0  0
   -4.8677    2.9490    1.4394 H   0  0  0  0  0  0  0  0  0  0  0  0
   -3.1370    2.1658   -1.7387 H   0  0  0  0  0  0  0  0  0  0  0  0
   -2.7408    2.3861    2.5461 H   0  0  0  0  0  0  0  0  0  0  0  0
   -0.3235    2.2676    2.3466 H   0  0  0  0  0  0  0  0  0  0  0  0
    1.9697    2.1790    1.9015 H   0  0  0  0  0  0  0  0  0  0  0  0
    1.1353    0.6357    1.6315 H   0  0  0  0  0  0  0  0  0  0  0  0
    0.0821    0.7686   -3.7143 H   0  0  0  0  0  0  0  0  0  0  0  0
   -1.3343    0.1631   -2.8266 H   0  0  0  0  0  0  0  0  0  0  0  0
    0.2947    0.1086   -2.0776 H   0  0  0  0  0  0  0  0  0  0  0  0
  1 28  1  0  0  0  0
  2 29  1  0  0  0  0
  3 30  1  0  0  0  0
  4 31  1  0  0  0  0
  5 33  1  0  0  0  0
  6 17  2  0  0  0  0
  7 24  1  0  0  0  0
  7 26  1  0  0  0  0
  8 23  1  0  0  0  0
  8 32  1  0  0  0  0
  9 17  1  0  0  0  0
  9 19  1  0  0  0  0
  9 51  1  0  0  0  0
 10 11  1  0  0  0  0
 10 12  1  0  0  0  0
 10 34  1  0  0  0  0
 10 35  1  0  0  0  0
 11 13  1  0  0  0  0
 11 36  1  0  0  0  0
 11 37  1  0  0  0  0
 12 14  1  0  0  0  0
 12 38  1  0  0  0  0
 12 39  1  0  0  0  0
 13 15  1  0  0  0  0
 13 40  1  0  0  0  0
 13 41  1  0  0  0  0
 14 16  1  0  0  0  0
 14 42  1  0  0  0  0
 14 43  1  0  0  0  0
 15 17  1  0  0  0  0
 15 44  1  0  0  0  0
 15 45  1  0  0  0  0
 16 18  1  0  0  0  0
 16 46  1  0  0  0  0
 16 47  1  0  0  0  0
 18 48  1  0  0  0  0
 18 49  1  0  0  0  0
 18 50  1  0  0  0  0
 19 20  1  0  0  0  0
 19 52  1  0  0  0  0
 19 53  1  0  0  0  0
 20 21  2  0  0  0  0
 20 22  1  0  0  0  0
 21 23  1  0  0  0  0
 21 54  1  0  0  0  0
 22 25  2  0  0  0  0
 22 55  1  0  0  0  0
 23 24  2  0  0  0  0
 24 25  1  0  0  0  0
 25 56  1  0  0  0  0
 26 27  1  0  0  0  0
 26 57  1  0  0  0  0
 26 58  1  0  0  0  0
 27 28  2  0  0  0  0
 27 29  1  0  0  0  0
 28 31  1  0  0  0  0
 29 30  2  0  0  0  0
 30 33  1  0  0  0  0
 31 33  2  0  0  0  0
 32 59  1  0  0  0  0
 32 60  1  0  0  0  0
 32 61  1  0  0  0  0
M  END
> <PUBCHEM_COMPOUND_CID>
14275037

> <PUBCHEM_CONFORMER_RMSD>
1.4

> <PUBCHEM_CONFORMER_DIVERSEORDER>
1
4
27
93
91
33
63
7
31
39
51
66
82
40
43
78
65
67
20
55
10
42
77
75
28
34
84
70
37
8
21
38
18
73
94
50
15
59
45
9
87
62
49
44
29
46
22
23
72
89
35
79
25
2
17
92
11
60
74
85
32
5
81
56
16
76
53
58
90
61
19
86
88
30
36
64
54
13
6
12
69
41
48
80
71
83
24
57
68
26
14
47
3
52

> <PUBCHEM_MMFF94_PARTIAL_CHARGES>
30
1 -0.19
15 0.06
17 0.57
19 0.44
2 -0.19
20 -0.14
21 -0.15
22 -0.15
23 0.08
24 0.08
25 -0.15
26 0.42
27 -0.14
28 0.19
29 0.19
3 -0.19
30 0.19
31 0.19
32 0.28
33 0.19
4 -0.19
5 -0.19
51 0.37
54 0.15
55 0.15
56 0.15
6 -0.57
7 -0.36
8 -0.36
9 -0.73

> <PUBCHEM_EFFECTIVE_ROTOR_COUNT>
14

> <PUBCHEM_PHARMACOPHORE_FEATURES>
7
1 18 hydrophobe
1 6 acceptor
1 7 acceptor
1 8 acceptor
1 9 donor
6 20 21 22 23 24 25 rings
6 27 28 29 30 31 33 rings

> <PUBCHEM_HEAVY_ATOM_COUNT>
33

> <PUBCHEM_ATOM_DEF_STEREO_COUNT>
0

> <PUBCHEM_ATOM_UDEF_STEREO_COUNT>
0

> <PUBCHEM_BOND_DEF_STEREO_COUNT>
0

> <PUBCHEM_BOND_UDEF_STEREO_COUNT>
0

> <PUBCHEM_ISOTOPIC_ATOM_COUNT>
0

> <PUBCHEM_COMPONENT_COUNT>
1

> <PUBCHEM_CACTVS_TAUTO_COUNT>
2

> <PUBCHEM_CONFORMER_ID>
00D9D1DD00000001

> <PUBCHEM_MMFF94_ENERGY>
63.7671

> <PUBCHEM_FEATURE_SELFOVERLAP>
35.526

> <PUBCHEM_SHAPE_FINGERPRINT>
10305334 12 17484533235088260993
11014199 57 17544758283945723115
11136131 41 18261383400432952202
11513181 2 18058445414286996423
11578080 2 14403808401735935003
13402501 40 18412545435639512203
1361 2 18409450258503627696
14394314 77 18341339878015962849
14461889 52 18201428234240244416
144659 178 18265057014625135709
14840074 17 17967255269631342205
15320467 1 18411419548538619331
15351339 4 18337383847409999179
16719943 64 18337387248681108515
17627616 140 18264208002659518803
19958102 18 18408881828187474815
20764821 26 17979080379512275819
20771845 165 17681264470334129757
21133410 38 18129109935951089131
23559900 14 18341042038681260401
373842 8 18265607689245923507
392239 28 18200320918281870307
4073 2 18412548686682043697
469060 322 16950278528969593686
50150288 127 16915112716056758867
5265222 85 18262801899392071085

> <PUBCHEM_SHAPE_MULTIPOLES>
620.17
14.11
5.67
1.43
4.22
7.95
0.78
-1.54
0.38
-0.82
-1.16
-0.59
-0.88
0.88

> <PUBCHEM_SHAPE_SELFOVERLAP>
1284.381

> <PUBCHEM_SHAPE_VOLUME>
355.8

> <PUBCHEM_COORDINATE_TYPE>
2
5
10

$$$$
