14414526
  -OEChem-03052615053D

 77 79  0     1  0  0  0  0  0999 V2000
   -3.0655   -0.0489    2.0852 O   0  0  0  0  0  0  0  0  0  0  0  0
   -3.2526   -2.0270   -0.9869 O   0  0  0  0  0  0  0  0  0  0  0  0
   -1.2501    2.1313    1.5926 O   0  0  0  0  0  0  0  0  0  0  0  0
   -1.1338    2.6277   -0.7066 O   0  0  0  0  0  0  0  0  0  0  0  0
   -5.5143   -0.8692    0.6478 O   0  0  0  0  0  0  0  0  0  0  0  0
    2.1524   -0.5847    0.0976 O   0  0  0  0  0  0  0  0  0  0  0  0
    4.3512   -0.4312    0.8629 O   0  0  0  0  0  0  0  0  0  0  0  0
   -3.4304   -4.2581   -0.4146 O   0  0  0  0  0  0  0  0  0  0  0  0
    2.9230   -2.6917   -1.6271 O   0  0  0  0  0  0  0  0  0  0  0  0
   -1.2519    4.6171    0.4545 O   0  0  0  0  0  0  0  0  0  0  0  0
    5.7641   -2.5086   -2.3859 O   0  0  0  0  0  0  0  0  0  0  0  0
    7.4221   -2.2128   -0.0366 O   0  0  0  0  0  0  0  0  0  0  0  0
   -7.2958    0.3380   -0.1926 O   0  0  0  0  0  0  0  0  0  0  0  0
    5.8726    0.2236    3.0568 O   0  0  0  0  0  0  0  0  0  0  0  0
   -2.1145    0.5224   -0.0929 C   0  0  2  0  0  0  0  0  0  0  0  0
   -3.2073   -0.2479    0.6797 C   0  0  1  0  0  0  0  0  0  0  0  0
   -0.8358   -0.3411    0.0715 C   0  0  2  0  0  0  0  0  0  0  0  0
   -2.8677   -1.7048    0.3438 C   0  0  2  0  0  0  0  0  0  0  0  0
   -1.3433   -1.7510    0.4619 C   0  0  0  0  0  0  0  0  0  0  0  0
   -1.8906    1.9814    0.3221 C   0  0  1  0  0  0  0  0  0  0  0  0
    0.1354    0.2176    1.0845 C   0  0  0  0  0  0  0  0  0  0  0  0
   -4.6202    0.1643    0.2768 C   0  0  0  0  0  0  0  0  0  0  0  0
   -0.1465    1.3402    1.7621 C   0  0  0  0  0  0  0  0  0  0  0  0
    1.4185   -0.5289    1.3062 C   0  0  0  0  0  0  0  0  0  0  0  0
   -3.5057   -3.3487   -1.2299 C   0  0  0  0  0  0  0  0  0  0  0  0
    3.3845   -1.2871    0.2584 C   0  0  2  0  0  0  0  0  0  0  0  0
   -0.8863    3.9563   -0.5080 C   0  0  0  0  0  0  0  0  0  0  0  0
    3.8553   -1.7343   -1.1254 C   0  0  1  0  0  0  0  0  0  0  0  0
    5.2464   -2.3654   -1.0623 C   0  0  2  0  0  0  0  0  0  0  0  0
   -6.8352   -0.6550    0.3540 C   0  0  0  0  0  0  0  0  0  0  0  0
    6.2157   -1.4902   -0.2676 C   0  0  1  0  0  0  0  0  0  0  0  0
    5.6042   -1.0839    1.0754 C   0  0  1  0  0  0  0  0  0  0  0  0
   -0.1156    4.4964   -1.6939 C   0  0  0  0  0  0  0  0  0  0  0  0
   -3.8981   -3.5375   -2.6639 C   0  0  0  0  0  0  0  0  0  0  0  0
    1.2162    5.1539   -1.3000 C   0  0  0  0  0  0  0  0  0  0  0  0
    6.5043   -0.1150    1.8357 C   0  0  0  0  0  0  0  0  0  0  0  0
   -7.6585   -1.8250    0.8006 C   0  0  0  0  0  0  0  0  0  0  0  0
    1.9103    5.7164   -2.5419 C   0  0  0  0  0  0  0  0  0  0  0  0
    2.1433    4.1611   -0.5942 C   0  0  0  0  0  0  0  0  0  0  0  0
   -2.3732    0.5087   -1.1626 H   0  0  0  0  0  0  0  0  0  0  0  0
   -0.3292   -0.3893   -0.9013 H   0  0  0  0  0  0  0  0  0  0  0  0
   -3.3240   -2.3891    1.0704 H   0  0  0  0  0  0  0  0  0  0  0  0
   -1.0750   -1.9966    1.4965 H   0  0  0  0  0  0  0  0  0  0  0  0
   -0.8980   -2.5118   -0.1886 H   0  0  0  0  0  0  0  0  0  0  0  0
   -2.8630    2.4851    0.3822 H   0  0  0  0  0  0  0  0  0  0  0  0
   -4.6871    0.3142   -0.8073 H   0  0  0  0  0  0  0  0  0  0  0  0
   -4.9083    1.0923    0.7850 H   0  0  0  0  0  0  0  0  0  0  0  0
   -3.7424   -0.5865    2.5309 H   0  0  0  0  0  0  0  0  0  0  0  0
    0.4791    1.7413    2.5481 H   0  0  0  0  0  0  0  0  0  0  0  0
    1.2003   -1.5431    1.6596 H   0  0  0  0  0  0  0  0  0  0  0  0
    2.0248   -0.0355    2.0759 H   0  0  0  0  0  0  0  0  0  0  0  0
    3.2170   -2.1670    0.8953 H   0  0  0  0  0  0  0  0  0  0  0  0
    3.8480   -0.8895   -1.8244 H   0  0  0  0  0  0  0  0  0  0  0  0
    5.1991   -3.3770   -0.6422 H   0  0  0  0  0  0  0  0  0  0  0  0
    6.4746   -0.6004   -0.8545 H   0  0  0  0  0  0  0  0  0  0  0  0
    5.4358   -1.9619    1.7140 H   0  0  0  0  0  0  0  0  0  0  0  0
   -0.7688    5.2154   -2.2024 H   0  0  0  0  0  0  0  0  0  0  0  0
    0.0697    3.6847   -2.4091 H   0  0  0  0  0  0  0  0  0  0  0  0
   -4.8074   -2.9694   -2.8760 H   0  0  0  0  0  0  0  0  0  0  0  0
   -4.0971   -4.5968   -2.8494 H   0  0  0  0  0  0  0  0  0  0  0  0
   -3.0820   -3.2166   -3.3162 H   0  0  0  0  0  0  0  0  0  0  0  0
    1.0149    5.9821   -0.6090 H   0  0  0  0  0  0  0  0  0  0  0  0
    6.6492    0.8101    1.2678 H   0  0  0  0  0  0  0  0  0  0  0  0
    7.4789   -0.5608    2.0561 H   0  0  0  0  0  0  0  0  0  0  0  0
   -7.3278   -2.7288    0.2824 H   0  0  0  0  0  0  0  0  0  0  0  0
   -8.7087   -1.6458    0.5534 H   0  0  0  0  0  0  0  0  0  0  0  0
   -7.5704   -1.9476    1.8829 H   0  0  0  0  0  0  0  0  0  0  0  0
    2.9119   -3.4498   -1.0182 H   0  0  0  0  0  0  0  0  0  0  0  0
    5.8018   -1.6264   -2.7931 H   0  0  0  0  0  0  0  0  0  0  0  0
    7.2052   -2.9974    0.4954 H   0  0  0  0  0  0  0  0  0  0  0  0
    2.1460    4.9241   -3.2606 H   0  0  0  0  0  0  0  0  0  0  0  0
    1.2715    6.4508   -3.0438 H   0  0  0  0  0  0  0  0  0  0  0  0
    2.8456    6.2177   -2.2712 H   0  0  0  0  0  0  0  0  0  0  0  0
    2.3449    3.2880   -1.2244 H   0  0  0  0  0  0  0  0  0  0  0  0
    3.1023    4.6315   -0.3520 H   0  0  0  0  0  0  0  0  0  0  0  0
    1.7067    3.8073    0.3451 H   0  0  0  0  0  0  0  0  0  0  0  0
    6.4601    0.8435    3.5217 H   0  0  0  0  0  0  0  0  0  0  0  0
  1 16  1  0  0  0  0
  1 48  1  0  0  0  0
  2 18  1  0  0  0  0
  2 25  1  0  0  0  0
  3 20  1  0  0  0  0
  3 23  1  0  0  0  0
  4 20  1  0  0  0  0
  4 27  1  0  0  0  0
  5 22  1  0  0  0  0
  5 30  1  0  0  0  0
  6 24  1  0  0  0  0
  6 26  1  0  0  0  0
  7 26  1  0  0  0  0
  7 32  1  0  0  0  0
  8 25  2  0  0  0  0
  9 28  1  0  0  0  0
  9 68  1  0  0  0  0
 10 27  2  0  0  0  0
 11 29  1  0  0  0  0
 11 69  1  0  0  0  0
 12 31  1  0  0  0  0
 12 70  1  0  0  0  0
 13 30  2  0  0  0  0
 14 36  1  0  0  0  0
 14 77  1  0  0  0  0
 15 16  1  0  0  0  0
 15 17  1  0  0  0  0
 15 20  1  0  0  0  0
 15 40  1  0  0  0  0
 16 18  1  0  0  0  0
 16 22  1  0  0  0  0
 17 19  1  0  0  0  0
 17 21  1  0  0  0  0
 17 41  1  0  0  0  0
 18 19  1  0  0  0  0
 18 42  1  0  0  0  0
 19 43  1  0  0  0  0
 19 44  1  0  0  0  0
 20 45  1  0  0  0  0
 21 23  2  0  0  0  0
 21 24  1  0  0  0  0
 22 46  1  0  0  0  0
 22 47  1  0  0  0  0
 23 49  1  0  0  0  0
 24 50  1  0  0  0  0
 24 51  1  0  0  0  0
 25 34  1  0  0  0  0
 26 28  1  0  0  0  0
 26 52  1  0  0  0  0
 27 33  1  0  0  0  0
 28 29  1  0  0  0  0
 28 53  1  0  0  0  0
 29 31  1  0  0  0  0
 29 54  1  0  0  0  0
 30 37  1  0  0  0  0
 31 32  1  0  0  0  0
 31 55  1  0  0  0  0
 32 36  1  0  0  0  0
 32 56  1  0  0  0  0
 33 35  1  0  0  0  0
 33 57  1  0  0  0  0
 33 58  1  0  0  0  0
 34 59  1  0  0  0  0
 34 60  1  0  0  0  0
 34 61  1  0  0  0  0
 35 38  1  0  0  0  0
 35 39  1  0  0  0  0
 35 62  1  0  0  0  0
 36 63  1  0  0  0  0
 36 64  1  0  0  0  0
 37 65  1  0  0  0  0
 37 66  1  0  0  0  0
 37 67  1  0  0  0  0
 38 71  1  0  0  0  0
 38 72  1  0  0  0  0
 38 73  1  0  0  0  0
 39 74  1  0  0  0  0
 39 75  1  0  0  0  0
 39 76  1  0  0  0  0
M  END
> <PUBCHEM_COMPOUND_CID>
14414526

> <PUBCHEM_CONFORMER_RMSD>
1.4

> <PUBCHEM_CONFORMER_DIVERSEORDER>
1
10
14
13
2
8
5
3
15
11
18
6
7
12
16
20
19
17
9
4

> <PUBCHEM_MMFF94_PARTIAL_CHARGES>
40
1 -0.68
10 -0.57
11 -0.68
12 -0.68
13 -0.57
14 -0.68
16 0.28
17 0.14
18 0.28
2 -0.43
20 0.56
21 -0.28
22 0.28
23 -0.07
24 0.42
25 0.66
26 0.56
27 0.66
28 0.28
29 0.28
3 -0.36
30 0.66
31 0.28
32 0.28
33 0.06
34 0.06
36 0.28
37 0.06
4 -0.43
48 0.4
49 0.15
5 -0.43
6 -0.56
68 0.4
69 0.4
7 -0.56
70 0.4
77 0.4
8 -0.57
9 -0.68

> <PUBCHEM_EFFECTIVE_ROTOR_COUNT>
15.2

> <PUBCHEM_PHARMACOPHORE_FEATURES>
20
1 1 acceptor
1 1 donor
1 10 acceptor
1 11 acceptor
1 11 donor
1 12 acceptor
1 12 donor
1 13 acceptor
1 14 acceptor
1 14 donor
1 3 acceptor
1 6 acceptor
1 7 acceptor
1 8 acceptor
1 9 acceptor
1 9 donor
3 35 38 39 hydrophobe
5 15 16 17 18 19 rings
6 3 15 17 20 21 23 rings
6 7 26 28 29 31 32 rings

> <PUBCHEM_HEAVY_ATOM_COUNT>
39

> <PUBCHEM_ATOM_DEF_STEREO_COUNT>
10

> <PUBCHEM_ATOM_UDEF_STEREO_COUNT>
0

> <PUBCHEM_BOND_DEF_STEREO_COUNT>
0

> <PUBCHEM_BOND_UDEF_STEREO_COUNT>
0

> <PUBCHEM_ISOTOPIC_ATOM_COUNT>
0

> <PUBCHEM_COMPONENT_COUNT>
1

> <PUBCHEM_CACTVS_TAUTO_COUNT>
1

> <PUBCHEM_CONFORMER_ID>
00DBF2BE00000001

> <PUBCHEM_MMFF94_ENERGY>
94.9782

> <PUBCHEM_FEATURE_SELFOVERLAP>
101.735

> <PUBCHEM_SHAPE_FINGERPRINT>
10050765 1 18045507675885088643
10930396 42 18341596110498969930
10940486 97 18128530647372341935
11488393 25 17684932792303444730
12788726 201 17968940760389149416
13540713 5 18054227915500249239
13617811 41 18334861584440651458
14910302 57 18201157655273640558
14955137 171 18336552702882184251
15021287 119 18408889559978005451
15082195 135 17979620558118214799
15198563 99 18190744133228664205
15849732 13 18342738512456140111
19958102 18 18054508006727396662
20554085 129 10519988170719471465
21033650 10 17609523544228945734
23559900 14 17488729194793132667
23576562 1 18263067960210652807
24771750 20 17972894823457304877
25019877 29 17274825727527741071
4073 2 18131348652730544186
4280585 95 18336808875557499738
469060 322 18263375697884178489
5081480 168 17822844394795575589
508706 21 18120927310134845068

> <PUBCHEM_SHAPE_MULTIPOLES>
720.43
16.54
6.85
2.14
2.16
11.94
-0.29
-18.08
2.65
2.07
-6.15
1.92
-0.05
-1.23

> <PUBCHEM_SHAPE_SELFOVERLAP>
1489.693

> <PUBCHEM_SHAPE_VOLUME>
405.4

> <PUBCHEM_COORDINATE_TYPE>
2
5
10

$$$$
