14489120
  -OEChem-03052615053D

 86 88  0     1  0  0  0  0  0999 V2000
   -1.6620   -0.7978    0.9857 O   0  0  0  0  0  0  0  0  0  0  0  0
   -0.2785   -2.6479   -0.9016 O   0  0  0  0  0  0  0  0  0  0  0  0
   -4.2914    0.2412    1.0127 O   0  0  0  0  0  0  0  0  0  0  0  0
    2.5861    1.8513   -2.3466 O   0  0  0  0  0  0  0  0  0  0  0  0
    2.4478    1.7727    2.3986 O   0  0  0  0  0  0  0  0  0  0  0  0
    1.5327   -2.1166   -2.2193 O   0  0  0  0  0  0  0  0  0  0  0  0
   -6.0820    0.0441   -0.4335 O   0  0  0  0  0  0  0  0  0  0  0  0
    3.3394    4.0110   -2.0220 O   0  0  0  0  0  0  0  0  0  0  0  0
    2.4202   -0.5342    2.2771 O   0  0  0  0  0  0  0  0  0  0  0  0
   -2.4067   -0.6587   -0.2290 C   0  0  1  0  0  0  0  0  0  0  0  0
   -1.4209   -0.5516   -1.4344 C   0  0  2  0  0  0  0  0  0  0  0  0
   -2.5609   -2.6169   -1.7443 C   0  0  1  0  0  0  0  0  0  0  0  0
   -3.1477   -2.0119   -0.4582 C   0  0  0  0  0  0  0  0  0  0  0  0
   -1.1559   -2.0179   -1.8273 C   0  0  2  0  0  0  0  0  0  0  0  0
   -3.4235    0.5120   -0.0963 C   0  0  2  0  0  0  0  0  0  0  0  0
   -2.9007    1.9756   -0.0114 C   0  0  2  0  0  0  0  0  0  0  0  0
   -0.1401    0.2052   -1.1701 C   0  0  0  0  0  0  0  0  0  0  0  0
   -2.6191   -4.1370   -1.7544 C   0  0  0  0  0  0  0  0  0  0  0  0
    0.3435    1.2890   -1.8064 C   0  0  0  0  0  0  0  0  0  0  0  0
   -1.8097    2.1974    1.0080 C   0  0  0  0  0  0  0  0  0  0  0  0
   -4.0469    2.9578    0.2645 C   0  0  0  0  0  0  0  0  0  0  0  0
    1.5782    2.0500   -1.3417 C   0  0  1  0  0  0  0  0  0  0  0  0
    0.5158    3.0535    1.6448 C   0  0  0  0  0  0  0  0  0  0  0  0
    1.4581    1.8393    1.3549 C   0  0  1  0  0  0  0  0  0  0  0  0
    2.2414    1.7676    0.0222 C   0  0  0  0  0  0  0  0  0  0  0  0
   -0.7186    2.9446    0.7614 C   0  0  0  0  0  0  0  0  0  0  0  0
    1.0444   -2.6243   -1.2218 C   0  0  0  0  0  0  0  0  0  0  0  0
   -0.3095    1.9067   -3.0214 C   0  0  0  0  0  0  0  0  0  0  0  0
   -5.5957    0.0270    0.6892 C   0  0  0  0  0  0  0  0  0  0  0  0
    1.2263    4.3972    1.3857 C   0  0  0  0  0  0  0  0  0  0  0  0
    0.1119    3.0545    3.1432 C   0  0  0  0  0  0  0  0  0  0  0  0
    1.8492   -3.3126   -0.1811 C   0  0  0  0  0  0  0  0  0  0  0  0
   -6.3784   -0.2418    1.9388 C   0  0  0  0  0  0  0  0  0  0  0  0
    3.3933    2.9223   -2.5780 C   0  0  0  0  0  0  0  0  0  0  0  0
    3.2347   -3.4026   -0.3170 C   0  0  0  0  0  0  0  0  0  0  0  0
    1.2202   -3.8688    0.9328 C   0  0  0  0  0  0  0  0  0  0  0  0
    2.8298    0.5165    2.7521 C   0  0  0  0  0  0  0  0  0  0  0  0
    4.3890    2.5717   -3.6419 C   0  0  0  0  0  0  0  0  0  0  0  0
    3.9909   -4.0489    0.6607 C   0  0  0  0  0  0  0  0  0  0  0  0
    1.9766   -4.5150    1.9106 C   0  0  0  0  0  0  0  0  0  0  0  0
    3.8565    0.6016    3.8404 C   0  0  0  0  0  0  0  0  0  0  0  0
    3.3619   -4.6051    1.7744 C   0  0  0  0  0  0  0  0  0  0  0  0
   -1.9787   -0.1001   -2.2617 H   0  0  0  0  0  0  0  0  0  0  0  0
   -3.1484   -2.2449   -2.5954 H   0  0  0  0  0  0  0  0  0  0  0  0
   -4.2261   -1.8989   -0.5981 H   0  0  0  0  0  0  0  0  0  0  0  0
   -3.0001   -2.6859    0.3948 H   0  0  0  0  0  0  0  0  0  0  0  0
   -0.7806   -2.1041   -2.8549 H   0  0  0  0  0  0  0  0  0  0  0  0
   -3.9925    0.4949   -1.0368 H   0  0  0  0  0  0  0  0  0  0  0  0
   -2.5016    2.2231   -1.0034 H   0  0  0  0  0  0  0  0  0  0  0  0
    0.4283   -0.1666   -0.3241 H   0  0  0  0  0  0  0  0  0  0  0  0
   -2.0884   -4.5709   -0.9006 H   0  0  0  0  0  0  0  0  0  0  0  0
   -3.6576   -4.4816   -1.7122 H   0  0  0  0  0  0  0  0  0  0  0  0
   -2.1673   -4.5324   -2.6698 H   0  0  0  0  0  0  0  0  0  0  0  0
   -2.3000   -0.8735    1.7158 H   0  0  0  0  0  0  0  0  0  0  0  0
   -1.9057    1.6661    1.9496 H   0  0  0  0  0  0  0  0  0  0  0  0
   -4.4665    2.8293    1.2684 H   0  0  0  0  0  0  0  0  0  0  0  0
   -3.6977    3.9938    0.1853 H   0  0  0  0  0  0  0  0  0  0  0  0
   -4.8538    2.8289   -0.4647 H   0  0  0  0  0  0  0  0  0  0  0  0
    1.2808    3.1050   -1.3427 H   0  0  0  0  0  0  0  0  0  0  0  0
    0.8254    0.9476    1.4345 H   0  0  0  0  0  0  0  0  0  0  0  0
    3.1075    2.4386    0.1203 H   0  0  0  0  0  0  0  0  0  0  0  0
    2.7195    0.7787   -0.0400 H   0  0  0  0  0  0  0  0  0  0  0  0
   -0.6739    3.4665   -0.1919 H   0  0  0  0  0  0  0  0  0  0  0  0
    0.4165    1.9990   -3.8362 H   0  0  0  0  0  0  0  0  0  0  0  0
   -1.1450    1.3294   -3.4195 H   0  0  0  0  0  0  0  0  0  0  0  0
   -0.6826    2.9078   -2.7816 H   0  0  0  0  0  0  0  0  0  0  0  0
    0.5760    5.2422    1.6424 H   0  0  0  0  0  0  0  0  0  0  0  0
    1.5151    4.5238    0.3387 H   0  0  0  0  0  0  0  0  0  0  0  0
    2.1372    4.4869    1.9886 H   0  0  0  0  0  0  0  0  0  0  0  0
    0.9603    3.3111    3.7885 H   0  0  0  0  0  0  0  0  0  0  0  0
   -0.6764    3.7905    3.3427 H   0  0  0  0  0  0  0  0  0  0  0  0
   -0.2528    2.0733    3.4679 H   0  0  0  0  0  0  0  0  0  0  0  0
   -5.9907   -1.1360    2.4335 H   0  0  0  0  0  0  0  0  0  0  0  0
   -7.4270   -0.4139    1.6797 H   0  0  0  0  0  0  0  0  0  0  0  0
   -6.3216    0.6228    2.6048 H   0  0  0  0  0  0  0  0  0  0  0  0
    3.7438   -2.9749   -1.1766 H   0  0  0  0  0  0  0  0  0  0  0  0
    0.1449   -3.8205    1.0795 H   0  0  0  0  0  0  0  0  0  0  0  0
    3.8679    2.3197   -4.5689 H   0  0  0  0  0  0  0  0  0  0  0  0
    5.0371    3.4325   -3.8296 H   0  0  0  0  0  0  0  0  0  0  0  0
    5.0089    1.7356   -3.3085 H   0  0  0  0  0  0  0  0  0  0  0  0
    5.0696   -4.1186    0.5553 H   0  0  0  0  0  0  0  0  0  0  0  0
    1.4875   -4.9476    2.7785 H   0  0  0  0  0  0  0  0  0  0  0  0
    3.4295    1.0986    4.7152 H   0  0  0  0  0  0  0  0  0  0  0  0
    4.1632   -0.4080    4.1287 H   0  0  0  0  0  0  0  0  0  0  0  0
    4.7352    1.1425    3.4799 H   0  0  0  0  0  0  0  0  0  0  0  0
    3.9508   -5.1078    2.5360 H   0  0  0  0  0  0  0  0  0  0  0  0
  1 10  1  0  0  0  0
  1 54  1  0  0  0  0
  2 14  1  0  0  0  0
  2 27  1  0  0  0  0
  3 15  1  0  0  0  0
  3 29  1  0  0  0  0
  4 22  1  0  0  0  0
  4 34  1  0  0  0  0
  5 24  1  0  0  0  0
  5 37  1  0  0  0  0
  6 27  2  0  0  0  0
  7 29  2  0  0  0  0
  8 34  2  0  0  0  0
  9 37  2  0  0  0  0
 10 11  1  0  0  0  0
 10 13  1  0  0  0  0
 10 15  1  0  0  0  0
 11 14  1  0  0  0  0
 11 17  1  0  0  0  0
 11 43  1  0  0  0  0
 12 13  1  0  0  0  0
 12 14  1  0  0  0  0
 12 18  1  0  0  0  0
 12 44  1  0  0  0  0
 13 45  1  0  0  0  0
 13 46  1  0  0  0  0
 14 47  1  0  0  0  0
 15 16  1  0  0  0  0
 15 48  1  0  0  0  0
 16 20  1  0  0  0  0
 16 21  1  0  0  0  0
 16 49  1  0  0  0  0
 17 19  2  0  0  0  0
 17 50  1  0  0  0  0
 18 51  1  0  0  0  0
 18 52  1  0  0  0  0
 18 53  1  0  0  0  0
 19 22  1  0  0  0  0
 19 28  1  0  0  0  0
 20 26  2  0  0  0  0
 20 55  1  0  0  0  0
 21 56  1  0  0  0  0
 21 57  1  0  0  0  0
 21 58  1  0  0  0  0
 22 25  1  0  0  0  0
 22 59  1  0  0  0  0
 23 24  1  0  0  0  0
 23 26  1  0  0  0  0
 23 30  1  0  0  0  0
 23 31  1  0  0  0  0
 24 25  1  0  0  0  0
 24 60  1  0  0  0  0
 25 61  1  0  0  0  0
 25 62  1  0  0  0  0
 26 63  1  0  0  0  0
 27 32  1  0  0  0  0
 28 64  1  0  0  0  0
 28 65  1  0  0  0  0
 28 66  1  0  0  0  0
 29 33  1  0  0  0  0
 30 67  1  0  0  0  0
 30 68  1  0  0  0  0
 30 69  1  0  0  0  0
 31 70  1  0  0  0  0
 31 71  1  0  0  0  0
 31 72  1  0  0  0  0
 32 35  2  0  0  0  0
 32 36  1  0  0  0  0
 33 73  1  0  0  0  0
 33 74  1  0  0  0  0
 33 75  1  0  0  0  0
 34 38  1  0  0  0  0
 35 39  1  0  0  0  0
 35 76  1  0  0  0  0
 36 40  2  0  0  0  0
 36 77  1  0  0  0  0
 37 41  1  0  0  0  0
 38 78  1  0  0  0  0
 38 79  1  0  0  0  0
 38 80  1  0  0  0  0
 39 42  2  0  0  0  0
 39 81  1  0  0  0  0
 40 42  1  0  0  0  0
 40 82  1  0  0  0  0
 41 83  1  0  0  0  0
 41 84  1  0  0  0  0
 41 85  1  0  0  0  0
 42 86  1  0  0  0  0
M  END
> <PUBCHEM_COMPOUND_CID>
14489120

> <PUBCHEM_CONFORMER_RMSD>
1.2

> <PUBCHEM_CONFORMER_DIVERSEORDER>
1
5
3
2
4

> <PUBCHEM_MMFF94_PARTIAL_CHARGES>
44
1 -0.68
10 0.28
11 0.14
14 0.28
15 0.28
16 0.14
17 -0.29
19 -0.28
2 -0.43
20 -0.29
22 0.42
23 0.14
24 0.28
26 -0.29
27 0.63
28 0.14
29 0.66
3 -0.43
32 0.09
33 0.06
34 0.66
35 -0.15
36 -0.15
37 0.66
38 0.06
39 -0.15
4 -0.43
40 -0.15
41 0.06
42 -0.15
5 -0.43
50 0.15
54 0.4
55 0.15
6 -0.57
63 0.15
7 -0.57
76 0.15
77 0.15
8 -0.57
81 0.15
82 0.15
86 0.15
9 -0.57

> <PUBCHEM_EFFECTIVE_ROTOR_COUNT>
10.8

> <PUBCHEM_PHARMACOPHORE_FEATURES>
9
1 1 acceptor
1 1 donor
1 6 acceptor
1 7 acceptor
1 8 acceptor
1 9 acceptor
3 23 30 31 hydrophobe
5 10 11 12 13 14 rings
6 32 35 36 39 40 42 rings

> <PUBCHEM_HEAVY_ATOM_COUNT>
42

> <PUBCHEM_ATOM_DEF_STEREO_COUNT>
8

> <PUBCHEM_ATOM_UDEF_STEREO_COUNT>
0

> <PUBCHEM_BOND_DEF_STEREO_COUNT>
2

> <PUBCHEM_BOND_UDEF_STEREO_COUNT>
0

> <PUBCHEM_ISOTOPIC_ATOM_COUNT>
0

> <PUBCHEM_COMPONENT_COUNT>
1

> <PUBCHEM_CACTVS_TAUTO_COUNT>
1

> <PUBCHEM_CONFORMER_ID>
00DD162000000001

> <PUBCHEM_MMFF94_ENERGY>
124.8274

> <PUBCHEM_FEATURE_SELFOVERLAP>
45.673

> <PUBCHEM_SHAPE_FINGERPRINT>
10305334 12 17557395946436136688
12156800 1 17984985048878722762
13140716 1 17841411924858134665
13383668 262 17823997816621417755
140371 6 17477506209315379741
14747282 125 17775560927724385862
14856354 85 16757990670608082424
15264996 154 18410007771097881231
19319366 153 18264785396254951903
20600515 1 17617103507827111205
20764821 26 18200023091895470505
42626532 9 17113554060733956052

> <PUBCHEM_SHAPE_MULTIPOLES>
811.52
8.78
7.09
3.69
10.65
3
0.04
2.61
2.82
-7.03
0
-4.27
-2.78
-3.76

> <PUBCHEM_SHAPE_SELFOVERLAP>
1687.364

> <PUBCHEM_SHAPE_VOLUME>
458

> <PUBCHEM_COORDINATE_TYPE>
2
5
10

$$$$
