14524429
  -OEChem-03052615053D

 50 53  0     1  0  0  0  0  0999 V2000
    0.4260    2.9208    0.8756 O   0  0  0  0  0  0  0  0  0  0  0  0
    0.5987    1.0980   -0.5934 O   0  0  0  0  0  0  0  0  0  0  0  0
    3.6113    4.1644   -0.1333 O   0  0  0  0  0  0  0  0  0  0  0  0
    3.3028    1.0979   -0.2846 O   0  0  0  0  0  0  0  0  0  0  0  0
   -0.6370    5.4287    0.2356 O   0  0  0  0  0  0  0  0  0  0  0  0
   -1.3569   -1.9477    0.1041 O   0  0  0  0  0  0  0  0  0  0  0  0
   -2.0299    2.0066   -0.6130 O   0  0  0  0  0  0  0  0  0  0  0  0
   -4.6056    1.6144   -0.3918 O   0  0  0  0  0  0  0  0  0  0  0  0
   -6.0023   -2.8315    0.5187 O   0  0  0  0  0  0  0  0  0  0  0  0
    3.3460   -3.3906   -2.3172 O   0  0  0  0  0  0  0  0  0  0  0  0
    3.6290   -2.4737    2.3750 O   0  0  0  0  0  0  0  0  0  0  0  0
    4.7354   -3.5463    0.0737 O   0  0  0  0  0  0  0  0  0  0  0  0
    2.4511    3.3697   -0.2939 C   0  0  1  0  0  0  0  0  0  0  0  0
    2.5610    2.0539    0.4430 C   0  0  1  0  0  0  0  0  0  0  0  0
    1.2552    4.0027    0.4064 C   0  0  1  0  0  0  0  0  0  0  0  0
    1.0978    1.6795    0.6071 C   0  0  1  0  0  0  0  0  0  0  0  0
    0.4424    4.9048   -0.5060 C   0  0  0  0  0  0  0  0  0  0  0  0
   -0.4618    0.2511   -0.3546 C   0  0  0  0  0  0  0  0  0  0  0  0
   -0.3113   -1.0629   -0.1072 C   0  0  0  0  0  0  0  0  0  0  0  0
   -1.8308    0.8195   -0.3927 C   0  0  0  0  0  0  0  0  0  0  0  0
   -2.9355   -0.1219   -0.1534 C   0  0  0  0  0  0  0  0  0  0  0  0
   -2.6389   -1.4624    0.0831 C   0  0  0  0  0  0  0  0  0  0  0  0
    1.0103   -1.7133   -0.0599 C   0  0  0  0  0  0  0  0  0  0  0  0
   -4.2621    0.3160   -0.1645 C   0  0  0  0  0  0  0  0  0  0  0  0
   -3.6691   -2.3753    0.3102 C   0  0  0  0  0  0  0  0  0  0  0  0
    1.7076   -1.7903    1.1461 C   0  0  0  0  0  0  0  0  0  0  0  0
    1.5651   -2.2524   -1.2209 C   0  0  0  0  0  0  0  0  0  0  0  0
   -5.2908   -0.5990    0.0632 C   0  0  0  0  0  0  0  0  0  0  0  0
   -4.9951   -1.9421    0.3001 C   0  0  0  0  0  0  0  0  0  0  0  0
    2.8160   -2.8680   -1.1762 C   0  0  0  0  0  0  0  0  0  0  0  0
    2.9585   -2.4059    1.1909 C   0  0  0  0  0  0  0  0  0  0  0  0
    3.5127   -2.9447    0.0298 C   0  0  0  0  0  0  0  0  0  0  0  0
    2.2853    3.2160   -1.3663 H   0  0  0  0  0  0  0  0  0  0  0  0
    3.0374    2.1963    1.4208 H   0  0  0  0  0  0  0  0  0  0  0  0
    1.5593    4.5695    1.2953 H   0  0  0  0  0  0  0  0  0  0  0  0
    0.9701    1.0151    1.4694 H   0  0  0  0  0  0  0  0  0  0  0  0
    0.0284    4.3393   -1.3473 H   0  0  0  0  0  0  0  0  0  0  0  0
    1.0505    5.7309   -0.8872 H   0  0  0  0  0  0  0  0  0  0  0  0
    3.7760    4.2795    0.8179 H   0  0  0  0  0  0  0  0  0  0  0  0
    4.1902    1.4670   -0.4318 H   0  0  0  0  0  0  0  0  0  0  0  0
   -1.1470    6.0013   -0.3623 H   0  0  0  0  0  0  0  0  0  0  0  0
   -3.4341   -3.4209    0.4936 H   0  0  0  0  0  0  0  0  0  0  0  0
    1.2747   -1.3766    2.0544 H   0  0  0  0  0  0  0  0  0  0  0  0
    1.0283   -2.1971   -2.1656 H   0  0  0  0  0  0  0  0  0  0  0  0
   -6.3261   -0.2666    0.0556 H   0  0  0  0  0  0  0  0  0  0  0  0
   -3.8143    2.1567   -0.5302 H   0  0  0  0  0  0  0  0  0  0  0  0
   -5.6184   -3.7134    0.6637 H   0  0  0  0  0  0  0  0  0  0  0  0
    4.2134   -3.7759   -2.1029 H   0  0  0  0  0  0  0  0  0  0  0  0
    3.0946   -2.0480    3.0671 H   0  0  0  0  0  0  0  0  0  0  0  0
    5.0653   -3.5050    0.9881 H   0  0  0  0  0  0  0  0  0  0  0  0
  1 15  1  0  0  0  0
  1 16  1  0  0  0  0
  2 16  1  0  0  0  0
  2 18  1  0  0  0  0
  3 13  1  0  0  0  0
  3 39  1  0  0  0  0
  4 14  1  0  0  0  0
  4 40  1  0  0  0  0
  5 17  1  0  0  0  0
  5 41  1  0  0  0  0
  6 19  1  0  0  0  0
  6 22  1  0  0  0  0
  7 20  2  0  0  0  0
  8 24  1  0  0  0  0
  8 46  1  0  0  0  0
  9 29  1  0  0  0  0
  9 47  1  0  0  0  0
 10 30  1  0  0  0  0
 10 48  1  0  0  0  0
 11 31  1  0  0  0  0
 11 49  1  0  0  0  0
 12 32  1  0  0  0  0
 12 50  1  0  0  0  0
 13 14  1  0  0  0  0
 13 15  1  0  0  0  0
 13 33  1  0  0  0  0
 14 16  1  0  0  0  0
 14 34  1  0  0  0  0
 15 17  1  0  0  0  0
 15 35  1  0  0  0  0
 16 36  1  0  0  0  0
 17 37  1  0  0  0  0
 17 38  1  0  0  0  0
 18 19  2  0  0  0  0
 18 20  1  0  0  0  0
 19 23  1  0  0  0  0
 20 21  1  0  0  0  0
 21 22  1  0  0  0  0
 21 24  2  0  0  0  0
 22 25  2  0  0  0  0
 23 26  2  0  0  0  0
 23 27  1  0  0  0  0
 24 28  1  0  0  0  0
 25 29  1  0  0  0  0
 25 42  1  0  0  0  0
 26 31  1  0  0  0  0
 26 43  1  0  0  0  0
 27 30  2  0  0  0  0
 27 44  1  0  0  0  0
 28 29  2  0  0  0  0
 28 45  1  0  0  0  0
 30 32  1  0  0  0  0
 31 32  2  0  0  0  0
M  END
> <PUBCHEM_COMPOUND_CID>
14524429

> <PUBCHEM_CONFORMER_RMSD>
0.8

> <PUBCHEM_CONFORMER_DIVERSEORDER>
6
88
90
109
108
121
30
122
113
118
73
114
7
35
92
89
17
39
85
80
86
64
15
68
101
57
50
77
97
78
25
112
45
36
38
69
74
10
96
93
117
72
55
105
94
71
115
103
83
87
98
22
63
99
53
65
40
49
104
47
2
41
116
29
66
61
75
79
31
81
84
44
120
58
42
106
48
1
70
56
20
34
13
26
54
28
46
119
27
59
111
102
60
43
67
52
51
62
91
8
11
21
4
95
24
33
82
18
110
76
100
19
16
12
9
107
3
32
5
23
37
14

> <PUBCHEM_MMFF94_PARTIAL_CHARGES>
44
1 -0.56
10 -0.53
11 -0.53
12 -0.53
13 0.28
14 0.28
15 0.28
16 0.56
17 0.28
18 0.09
19 0.05
2 -0.36
20 0.47
21 0.09
22 0.08
23 0.03
24 0.08
25 -0.15
26 -0.15
27 -0.15
28 -0.15
29 0.08
3 -0.68
30 0.08
31 0.08
32 0.08
39 0.4
4 -0.68
40 0.4
41 0.4
42 0.15
43 0.15
44 0.15
45 0.15
46 0.45
47 0.45
48 0.45
49 0.45
5 -0.68
50 0.45
6 -0.16
7 -0.57
8 -0.53
9 -0.53

> <PUBCHEM_EFFECTIVE_ROTOR_COUNT>
5

> <PUBCHEM_PHARMACOPHORE_FEATURES>
19
1 1 acceptor
1 10 donor
1 11 donor
1 12 donor
1 2 acceptor
1 3 acceptor
1 3 donor
1 4 acceptor
1 4 donor
1 5 acceptor
1 5 donor
1 6 acceptor
1 7 acceptor
1 8 donor
1 9 donor
5 1 13 14 15 16 rings
6 21 22 24 25 28 29 rings
6 23 26 27 30 31 32 rings
6 6 18 19 20 21 22 rings

> <PUBCHEM_HEAVY_ATOM_COUNT>
32

> <PUBCHEM_ATOM_DEF_STEREO_COUNT>
0

> <PUBCHEM_ATOM_UDEF_STEREO_COUNT>
4

> <PUBCHEM_BOND_DEF_STEREO_COUNT>
0

> <PUBCHEM_BOND_UDEF_STEREO_COUNT>
0

> <PUBCHEM_ISOTOPIC_ATOM_COUNT>
0

> <PUBCHEM_COMPONENT_COUNT>
1

> <PUBCHEM_CACTVS_TAUTO_COUNT>
195

> <PUBCHEM_CONFORMER_ID>
00DDA00D00000006

> <PUBCHEM_MMFF94_ENERGY>
102.4388

> <PUBCHEM_FEATURE_SELFOVERLAP>
96.527

> <PUBCHEM_SHAPE_FINGERPRINT>
10050765 1 18410012178904574819
10074138 170 17181899209193639386
10411042 1 18338798909862959899
1100329 8 18122345679728396833
11014199 57 18340209574796522025
11488393 25 18338248166301059226
11578080 2 17241584187599397623
11963148 33 17830167275249980051
12160290 23 17264105282491779970
12422481 6 18053345952265723074
12788726 201 17901112914601051698
13140716 1 18336265657280097483
13540713 4 18187641440991494583
138480 1 18410855455986337720
13911987 19 16822219191826208748
140371 6 18053102826629744469
14466204 15 18266732674408926632
14790565 3 17474110277315969509
15324884 4 17772176519085892398
15927050 60 17980482588072144974
16728300 4 17754135895959671752
1813 80 18200315403106590326
19591789 44 17834675272310619229
20028762 73 17693658529862158679
20600515 1 18124019136008679570
20691752 17 17022621966319399823
21033648 29 17416100816797486939
21033650 10 17685805444223603598
21133410 221 16974429122703484202
21133410 32 16447619222486189514
21133665 82 18048883181188921836
23366157 5 18187645855342116447
23557571 272 17910668770522010430
23559900 14 18410288091170708387
255183 451 18201731634492374487
3178227 256 18048324628004930721
3298306 158 18266465497683617276
3411729 13 18337107998354629386
3886686 26 16390683941904017186
5104073 3 18336839671449432923
5385378 56 18269002062403196209
59755656 215 18190743226984743583
6700243 42 17628103121458604342
6823239 73 18340204094566322114
9709674 26 18336548313272977451

> <PUBCHEM_SHAPE_MULTIPOLES>
588.11
9.37
6.95
1.16
12.08
7.62
-0.02
-7.22
-0.75
-7.8
0.33
-1.31
-1.13
0.7

> <PUBCHEM_SHAPE_SELFOVERLAP>
1304.218

> <PUBCHEM_SHAPE_VOLUME>
312.9

> <PUBCHEM_COORDINATE_TYPE>
2
5
10

$$$$
