14539158
  -OEChem-03052615013D

 45 46  0     0  0  0  0  0  0999 V2000
   -1.9253    2.3933   -1.8117 O   0  5  0  0  0  0  0  0  0  0  0  0
    8.8715   -1.1061    0.1716 O   0  0  0  0  0  0  0  0  0  0  0  0
   -6.7455   -1.5004    0.2350 O   0  0  0  0  0  0  0  0  0  0  0  0
    7.2976   -1.9394   -1.2351 O   0  0  0  0  0  0  0  0  0  0  0  0
    0.4718    1.3840    0.2704 N   0  0  0  0  0  0  0  0  0  0  0  0
   -1.2801    1.7973   -0.9107 N   0  3  0  0  0  0  0  0  0  0  0  0
    1.8347    1.4453    0.7857 C   0  0  0  0  0  0  0  0  0  0  0  0
    2.8056    0.4958    0.0769 C   0  0  0  0  0  0  0  0  0  0  0  0
    4.2285    0.5697    0.6402 C   0  0  0  0  0  0  0  0  0  0  0  0
   -0.5361    0.5668    0.7006 C   0  0  0  0  0  0  0  0  0  0  0  0
    5.2148   -0.3709   -0.0646 C   0  0  0  0  0  0  0  0  0  0  0  0
   -1.6758    0.8286   -0.0607 C   0  0  0  0  0  0  0  0  0  0  0  0
   -0.0395    2.1234   -0.7252 C   0  0  0  0  0  0  0  0  0  0  0  0
    6.6513   -0.3120    0.4573 C   0  0  0  0  0  0  0  0  0  0  0  0
   -2.9677    0.2351    0.0146 C   0  0  0  0  0  0  0  0  0  0  0  0
   -0.3407   -0.4008    1.8040 C   0  0  0  0  0  0  0  0  0  0  0  0
   -3.9514    0.7802    0.8500 C   0  0  0  0  0  0  0  0  0  0  0  0
   -3.2719   -0.9017   -0.7457 C   0  0  0  0  0  0  0  0  0  0  0  0
    7.6011   -1.2151   -0.2975 C   0  0  0  0  0  0  0  0  0  0  0  0
   -5.2172    0.1985    0.9240 C   0  0  0  0  0  0  0  0  0  0  0  0
   -4.5377   -1.4833   -0.6720 C   0  0  0  0  0  0  0  0  0  0  0  0
   -5.5104   -0.9330    0.1628 C   0  0  0  0  0  0  0  0  0  0  0  0
   -6.9775   -2.6554   -0.5699 C   0  0  0  0  0  0  0  0  0  0  0  0
    1.7986    1.2399    1.8608 H   0  0  0  0  0  0  0  0  0  0  0  0
    2.1695    2.4834    0.6704 H   0  0  0  0  0  0  0  0  0  0  0  0
    2.4384   -0.5345    0.1571 H   0  0  0  0  0  0  0  0  0  0  0  0
    2.8268    0.7321   -0.9944 H   0  0  0  0  0  0  0  0  0  0  0  0
    4.5956    1.5999    0.5558 H   0  0  0  0  0  0  0  0  0  0  0  0
    4.2065    0.3272    1.7097 H   0  0  0  0  0  0  0  0  0  0  0  0
    4.8467   -1.4015    0.0208 H   0  0  0  0  0  0  0  0  0  0  0  0
    5.2166   -0.1386   -1.1375 H   0  0  0  0  0  0  0  0  0  0  0  0
    0.5135    2.8714   -1.2784 H   0  0  0  0  0  0  0  0  0  0  0  0
    6.6680   -0.6074    1.5121 H   0  0  0  0  0  0  0  0  0  0  0  0
    7.0250    0.7146    0.3724 H   0  0  0  0  0  0  0  0  0  0  0  0
   -0.1593    0.1216    2.7488 H   0  0  0  0  0  0  0  0  0  0  0  0
    0.5056   -1.0647    1.6031 H   0  0  0  0  0  0  0  0  0  0  0  0
   -1.2227   -1.0339    1.9438 H   0  0  0  0  0  0  0  0  0  0  0  0
   -3.7410    1.6624    1.4507 H   0  0  0  0  0  0  0  0  0  0  0  0
   -2.5251   -1.3436   -1.4020 H   0  0  0  0  0  0  0  0  0  0  0  0
   -5.9708    0.6315    1.5760 H   0  0  0  0  0  0  0  0  0  0  0  0
   -4.6978   -2.3603   -1.2897 H   0  0  0  0  0  0  0  0  0  0  0  0
    9.4946   -1.6788   -0.3244 H   0  0  0  0  0  0  0  0  0  0  0  0
   -6.3296   -3.4879   -0.2754 H   0  0  0  0  0  0  0  0  0  0  0  0
   -8.0093   -2.9739   -0.3885 H   0  0  0  0  0  0  0  0  0  0  0  0
   -6.8973   -2.4246   -1.6376 H   0  0  0  0  0  0  0  0  0  0  0  0
  1  6  1  0  0  0  0
  2 19  1  0  0  0  0
  2 42  1  0  0  0  0
  3 22  1  0  0  0  0
  3 23  1  0  0  0  0
  4 19  2  0  0  0  0
  5  7  1  0  0  0  0
  5 10  1  0  0  0  0
  5 13  1  0  0  0  0
  6 12  1  0  0  0  0
  6 13  2  0  0  0  0
  7  8  1  0  0  0  0
  7 24  1  0  0  0  0
  7 25  1  0  0  0  0
  8  9  1  0  0  0  0
  8 26  1  0  0  0  0
  8 27  1  0  0  0  0
  9 11  1  0  0  0  0
  9 28  1  0  0  0  0
  9 29  1  0  0  0  0
 10 12  2  0  0  0  0
 10 16  1  0  0  0  0
 11 14  1  0  0  0  0
 11 30  1  0  0  0  0
 11 31  1  0  0  0  0
 12 15  1  0  0  0  0
 13 32  1  0  0  0  0
 14 19  1  0  0  0  0
 14 33  1  0  0  0  0
 14 34  1  0  0  0  0
 15 17  2  0  0  0  0
 15 18  1  0  0  0  0
 16 35  1  0  0  0  0
 16 36  1  0  0  0  0
 16 37  1  0  0  0  0
 17 20  1  0  0  0  0
 17 38  1  0  0  0  0
 18 21  2  0  0  0  0
 18 39  1  0  0  0  0
 20 22  2  0  0  0  0
 20 40  1  0  0  0  0
 21 22  1  0  0  0  0
 21 41  1  0  0  0  0
 23 43  1  0  0  0  0
 23 44  1  0  0  0  0
 23 45  1  0  0  0  0
M  CHG  2   1  -1   6   1
M  END
> <PUBCHEM_COMPOUND_CID>
14539158

> <PUBCHEM_CONFORMER_RMSD>
0.8

> <PUBCHEM_CONFORMER_DIVERSEORDER>
5
51
37
88
99
133
79
57
80
92
128
152
96
84
119
129
8
126
86
59
141
83
140
2
161
65
55
122
15
109
56
150
97
142
149
144
127
54
33
91
137
148
60
42
104
53
38
68
63
11
82
157
125
16
18
47
135
143
94
58
136
134
118
36
98
1
34
67
117
3
9
159
106
100
70
30
27
156
21
154
110
108
87
4
52
153
151
81
12
46
50
76
39
90
64
102
89
7
158
103
32
75
138
130
66
105
101
73
115
17
74
114
147
20
24
48
146
13
113
124
40
14
93
107
19
78
111
10
44
29
77
26
145
45
112
139
22
160
61
116
132
120
23
121
35
85
155
162
28
62
123
6
71
131
69
31
49
25
41
72
43
95

> <PUBCHEM_MMFF94_PARTIAL_CHARGES>
26
1 -0.63
10 -0.33
12 -0.14
13 -0.38
14 0.06
15 0.05
16 0.18
17 -0.15
18 -0.15
19 0.66
2 -0.65
20 -0.15
21 -0.15
22 0.08
23 0.28
3 -0.36
32 0.15
38 0.15
39 0.15
4 -0.57
40 0.15
41 0.15
42 0.5
5 0.05
6 0.8
7 0.26

> <PUBCHEM_EFFECTIVE_ROTOR_COUNT>
8

> <PUBCHEM_PHARMACOPHORE_FEATURES>
9
1 1 anion
1 2 acceptor
1 3 acceptor
1 4 acceptor
3 2 4 19 anion
3 5 6 13 cation
4 8 9 11 14 hydrophobe
5 5 6 10 12 13 rings
6 15 17 18 20 21 22 rings

> <PUBCHEM_HEAVY_ATOM_COUNT>
23

> <PUBCHEM_ATOM_DEF_STEREO_COUNT>
0

> <PUBCHEM_ATOM_UDEF_STEREO_COUNT>
0

> <PUBCHEM_BOND_DEF_STEREO_COUNT>
0

> <PUBCHEM_BOND_UDEF_STEREO_COUNT>
0

> <PUBCHEM_ISOTOPIC_ATOM_COUNT>
0

> <PUBCHEM_COMPONENT_COUNT>
1

> <PUBCHEM_CACTVS_TAUTO_COUNT>
1

> <PUBCHEM_CONFORMER_ID>
00DDD99600000005

> <PUBCHEM_MMFF94_ENERGY>
55.3814

> <PUBCHEM_FEATURE_SELFOVERLAP>
45.729

> <PUBCHEM_SHAPE_FINGERPRINT>
10 15 14549015486351728970
10299344 5 18343025501811695024
106641 1 12823292425339200805
11524674 6 16917347043521717942
12236239 1 18339360898698008465
12616971 3 15984811650261641912
12760667 363 18335423469215589009
12895837 130 10665232549011102483
13288520 33 18411699881111791529
13540713 5 16662873748680304624
13668630 136 18335417993153495954
13673619 4 18412262843976696464
13685833 64 18202846535657189440
13862211 1 17968086547344717769
13911987 19 16081083779770655595
14347332 77 18115017503569715144
14556957 393 16298678187480128430
14767858 380 17313100848071157618
15183329 4 17458062656158783634
15198563 99 17168133512492640869
15352257 5 18202284689299879830
15706992 2 8430319090755786687
1768 4 8142090896843224151
17780758 139 17632295653114069992
1813 80 18260834821365691269
18222031 100 17968365862406838241
18335252 98 18272651256445673454
18643901 69 18335423447724817934
20281389 69 10447934958138905426
21033648 29 13686032976811229145
21150785 3 14923946756172895162
21267235 1 18260831531689241411
21304304 249 18341894151518118415
21307412 95 17895474834355235875
21424621 283 9583251547381194719
21637258 2 18131063874812283885
22224240 67 12031793573947493309
23035841 295 18342177756834991530
23522609 53 18121532161415218360
23559900 14 18269831085296229464
23569943 247 18337107852505733314
23576562 1 15937260069951646495
246663 6 18187651309987506051
2838139 119 10809349948715709594
5104073 3 14691751834515721378
5385378 56 11743852352221899852
543368 44 7997978968610251675
559249 180 18343865520263597811
636775 72 8862939472829893086
999808 66 18335711576075907939

> <PUBCHEM_SHAPE_MULTIPOLES>
439.89
21.85
2.22
1.18
35.74
0.2
0.02
20.38
1.25
-1.47
0.91
-0.35
-0.29
0.43

> <PUBCHEM_SHAPE_SELFOVERLAP>
917.662

> <PUBCHEM_SHAPE_VOLUME>
252.7

> <PUBCHEM_COORDINATE_TYPE>
2
5
10

$$$$
