14543433
  -OEChem-03052615063D

 49 52  0     1  0  0  0  0  0999 V2000
   -3.0937    3.0623   -1.2647 O   0  0  0  0  0  0  0  0  0  0  0  0
    0.4454   -0.0522   -0.6213 O   0  0  0  0  0  0  0  0  0  0  0  0
   -0.5557    0.5333    1.4317 O   0  0  0  0  0  0  0  0  0  0  0  0
   -2.0256   -1.1327   -1.4498 O   0  0  0  0  0  0  0  0  0  0  0  0
    2.4946    0.8497    0.0354 O   0  0  0  0  0  0  0  0  0  0  0  0
   -4.7043   -1.7313    0.4698 O   0  0  0  0  0  0  0  0  0  0  0  0
    1.6625   -2.5970   -0.8466 O   0  0  0  0  0  0  0  0  0  0  0  0
    4.5409   -2.3908   -1.4408 O   0  0  0  0  0  0  0  0  0  0  0  0
    5.8342   -0.6024    0.4260 O   0  0  0  0  0  0  0  0  0  0  0  0
   -3.5633   -2.1489    2.3627 O   0  0  0  0  0  0  0  0  0  0  0  0
    3.6273    2.8240    1.5662 O   0  0  0  0  0  0  0  0  0  0  0  0
   -1.6718    1.1408   -0.7111 C   0  0  2  0  0  0  0  0  0  0  0  0
   -2.3277    2.4249   -0.2522 C   0  0  1  0  0  0  0  0  0  0  0  0
   -2.5769   -0.1176   -0.5942 C   0  0  1  0  0  0  0  0  0  0  0  0
   -0.3511    0.9141    0.0647 C   0  0  2  0  0  0  0  0  0  0  0  0
   -1.9019    3.7269   -0.8256 C   0  0  0  0  0  0  0  0  0  0  0  0
   -4.0278    0.1102   -1.0181 C   0  0  0  0  0  0  0  0  0  0  0  0
   -2.5547   -0.6718    0.7959 C   0  0  0  0  0  0  0  0  0  0  0  0
    1.7155   -0.3420   -0.0383 C   0  0  2  0  0  0  0  0  0  0  0  0
    2.4100   -1.3830   -0.9162 C   0  0  1  0  0  0  0  0  0  0  0  0
   -4.8102   -1.1812   -0.8606 C   0  0  0  0  0  0  0  0  0  0  0  0
   -1.6056   -0.3119    1.6732 C   0  0  0  0  0  0  0  0  0  0  0  0
    3.8417   -1.6408   -0.4463 C   0  0  2  0  0  0  0  0  0  0  0  0
    4.5962   -0.3297   -0.2253 C   0  0  1  0  0  0  0  0  0  0  0  0
    3.7732    0.6323    0.6348 C   0  0  1  0  0  0  0  0  0  0  0  0
   -3.6251   -1.5761    1.2791 C   0  0  0  0  0  0  0  0  0  0  0  0
    4.4539    1.9906    0.7718 C   0  0  0  0  0  0  0  0  0  0  0  0
   -1.4033    1.2492   -1.7730 H   0  0  0  0  0  0  0  0  0  0  0  0
   -2.7164    2.4047    0.7561 H   0  0  0  0  0  0  0  0  0  0  0  0
    0.2081    1.8572    0.0821 H   0  0  0  0  0  0  0  0  0  0  0  0
   -2.0214    4.6165   -0.2207 H   0  0  0  0  0  0  0  0  0  0  0  0
   -1.0632    3.7540   -1.5089 H   0  0  0  0  0  0  0  0  0  0  0  0
   -4.0830    0.4349   -2.0635 H   0  0  0  0  0  0  0  0  0  0  0  0
   -4.4986    0.8789   -0.3935 H   0  0  0  0  0  0  0  0  0  0  0  0
    1.5508   -0.7435    0.9699 H   0  0  0  0  0  0  0  0  0  0  0  0
    2.4057   -1.0679   -1.9664 H   0  0  0  0  0  0  0  0  0  0  0  0
   -5.8725   -0.9948   -1.0492 H   0  0  0  0  0  0  0  0  0  0  0  0
   -4.4844   -1.9506   -1.5687 H   0  0  0  0  0  0  0  0  0  0  0  0
   -1.5694   -0.6334    2.7060 H   0  0  0  0  0  0  0  0  0  0  0  0
    3.8445   -2.2520    0.4649 H   0  0  0  0  0  0  0  0  0  0  0  0
    4.8240    0.1314   -1.1950 H   0  0  0  0  0  0  0  0  0  0  0  0
   -1.1207   -1.3303   -1.1543 H   0  0  0  0  0  0  0  0  0  0  0  0
    3.6222    0.2248    1.6438 H   0  0  0  0  0  0  0  0  0  0  0  0
    4.5699    2.4705   -0.2057 H   0  0  0  0  0  0  0  0  0  0  0  0
    5.4328    1.9043    1.2527 H   0  0  0  0  0  0  0  0  0  0  0  0
    1.6526   -2.8925    0.0797 H   0  0  0  0  0  0  0  0  0  0  0  0
    5.3978   -2.6537   -1.0650 H   0  0  0  0  0  0  0  0  0  0  0  0
    6.3874   -1.1100   -0.1911 H   0  0  0  0  0  0  0  0  0  0  0  0
    4.0736    3.6848    1.6389 H   0  0  0  0  0  0  0  0  0  0  0  0
  1 13  1  0  0  0  0
  1 16  1  0  0  0  0
  2 15  1  0  0  0  0
  2 19  1  0  0  0  0
  3 15  1  0  0  0  0
  3 22  1  0  0  0  0
  4 14  1  0  0  0  0
  4 42  1  0  0  0  0
  5 19  1  0  0  0  0
  5 25  1  0  0  0  0
  6 21  1  0  0  0  0
  6 26  1  0  0  0  0
  7 20  1  0  0  0  0
  7 46  1  0  0  0  0
  8 23  1  0  0  0  0
  8 47  1  0  0  0  0
  9 24  1  0  0  0  0
  9 48  1  0  0  0  0
 10 26  2  0  0  0  0
 11 27  1  0  0  0  0
 11 49  1  0  0  0  0
 12 13  1  0  0  0  0
 12 14  1  0  0  0  0
 12 15  1  0  0  0  0
 12 28  1  0  0  0  0
 13 16  1  0  0  0  0
 13 29  1  0  0  0  0
 14 17  1  0  0  0  0
 14 18  1  0  0  0  0
 15 30  1  0  0  0  0
 16 31  1  0  0  0  0
 16 32  1  0  0  0  0
 17 21  1  0  0  0  0
 17 33  1  0  0  0  0
 17 34  1  0  0  0  0
 18 22  2  0  0  0  0
 18 26  1  0  0  0  0
 19 20  1  0  0  0  0
 19 35  1  0  0  0  0
 20 23  1  0  0  0  0
 20 36  1  0  0  0  0
 21 37  1  0  0  0  0
 21 38  1  0  0  0  0
 22 39  1  0  0  0  0
 23 24  1  0  0  0  0
 23 40  1  0  0  0  0
 24 25  1  0  0  0  0
 24 41  1  0  0  0  0
 25 27  1  0  0  0  0
 25 43  1  0  0  0  0
 27 44  1  0  0  0  0
 27 45  1  0  0  0  0
M  END
> <PUBCHEM_COMPOUND_CID>
14543433

> <PUBCHEM_CONFORMER_RMSD>
0.8

> <PUBCHEM_CONFORMER_DIVERSEORDER>
1
42
24
75
5
20
7
46
74
78
62
58
65
79
36
52
3
11
45
54
13
63
76
50
12
33
61
21
18
48
43
66
29
37
70
17
83
27
10
8
64
34
40
39
16
51
71
68
4
69
23
26
57
47
32
80
53
44
2
9
28
35
84
22
41
56
6
19
67
82
15
81
49
73
30
59
77
72
55
60
14
25
31
38

> <PUBCHEM_MMFF94_PARTIAL_CHARGES>
35
1 -0.3
10 -0.57
11 -0.68
12 0.09
13 -0.05
14 0.42
15 0.56
16 -0.05
18 -0.12
19 0.56
2 -0.56
20 0.28
21 0.28
22 -0.07
23 0.28
24 0.28
25 0.28
26 0.71
27 0.28
29 0.1
3 -0.36
31 0.1
32 0.1
39 0.15
4 -0.68
42 0.4
46 0.4
47 0.4
48 0.4
49 0.4
5 -0.56
6 -0.43
7 -0.68
8 -0.68
9 -0.68

> <PUBCHEM_EFFECTIVE_ROTOR_COUNT>
7

> <PUBCHEM_PHARMACOPHORE_FEATURES>
18
1 1 acceptor
1 10 acceptor
1 11 acceptor
1 11 donor
1 2 acceptor
1 3 acceptor
1 4 acceptor
1 4 donor
1 5 acceptor
1 7 acceptor
1 7 donor
1 8 acceptor
1 8 donor
1 9 acceptor
1 9 donor
6 3 12 14 15 18 22 rings
6 5 19 20 23 24 25 rings
6 6 14 17 18 21 26 rings

> <PUBCHEM_HEAVY_ATOM_COUNT>
27

> <PUBCHEM_ATOM_DEF_STEREO_COUNT>
9

> <PUBCHEM_ATOM_UDEF_STEREO_COUNT>
0

> <PUBCHEM_BOND_DEF_STEREO_COUNT>
0

> <PUBCHEM_BOND_UDEF_STEREO_COUNT>
0

> <PUBCHEM_ISOTOPIC_ATOM_COUNT>
0

> <PUBCHEM_COMPONENT_COUNT>
1

> <PUBCHEM_CACTVS_TAUTO_COUNT>
1

> <PUBCHEM_CONFORMER_ID>
00DDEA4900000001

> <PUBCHEM_MMFF94_ENERGY>
76.7988

> <PUBCHEM_FEATURE_SELFOVERLAP>
91.485

> <PUBCHEM_SHAPE_FINGERPRINT>
10366900 7 18335709347066449938
11315181 36 17458348537798163886
11405975 8 18268427941065874888
11578080 2 17559935715418063953
12236239 1 16702306771332553058
12403814 3 18272647974309924709
12788726 201 18188761757108432641
12916754 54 18130790031628370524
13224815 77 18202566172475757966
133893 2 16227483812917526756
13544653 18 18343027713392895731
13583140 156 18342737373703841806
13944108 23 15884325804719851420
14341114 328 16988291983242064802
14840074 17 18127980899720854413
15961568 22 17968376870477161836
17349148 13 16153422857227489914
200 152 17917989460224887607
20600515 1 17169261744693226997
20681677 76 18342172220469328500
21033648 29 18271508867542710264
21065201 7 18187363173748458576
21315764 371 16226318335335489312
21623110 236 17917149523741691543
221490 88 18342741767761282070
22393880 68 18266180518066814838
23175994 123 18188213216865020273
23557571 272 18113337539532432897
23559900 14 18114179744175501792
3380486 145 18194124251189254699
350125 39 18343581867654325460
4015057 19 17985248699620193244
469060 322 17910932940674046101
508706 21 18261959544308614782
5104073 3 18341327774196093026
5283173 99 18041549274588961845
6004065 56 18122897896890718503
6913067 236 18198326532626705408
7399639 24 18339916134257384344
81228 2 18187373095281706981
9709674 26 18409728422113047196

> <PUBCHEM_SHAPE_MULTIPOLES>
491.08
11
3.27
1.54
8.08
2.51
0.53
-3.2
0.2
-0.81
-0.43
-0.83
-0.41
3.11

> <PUBCHEM_SHAPE_SELFOVERLAP>
1044.696

> <PUBCHEM_SHAPE_VOLUME>
265.2

> <PUBCHEM_COORDINATE_TYPE>
2
5
10

$$$$
