145707084
  -OEChem-03052615063D

 39 42  0     1  0  0  0  0  0999 V2000
    0.0262   -2.5635   -1.0709 O   0  0  0  0  0  0  0  0  0  0  0  0
    3.1104    1.4697    0.9842 O   0  0  0  0  0  0  0  0  0  0  0  0
   -2.2574   -1.0875   -0.3739 O   0  0  0  0  0  0  0  0  0  0  0  0
   -4.2276   -0.4696    0.6466 O   0  0  0  0  0  0  0  0  0  0  0  0
    0.7155   -1.9456    0.0380 C   0  0  2  0  0  0  0  0  0  0  0  0
    0.0806   -1.1387   -1.0855 C   0  0  2  0  0  0  0  0  0  0  0  0
    2.1772    1.3689   -0.1123 C   0  0  1  0  0  0  0  0  0  0  0  0
    2.2391    0.3355    1.0078 C   0  0  1  0  0  0  0  0  0  0  0  0
   -1.1764   -0.3539   -0.9662 C   0  0  2  0  0  0  0  0  0  0  0  0
    2.2220   -2.0084   -0.0046 C   0  0  0  0  0  0  0  0  0  0  0  0
    2.9149   -0.9978    0.9219 C   0  0  0  0  0  0  0  0  0  0  0  0
   -0.9974    0.8888   -0.0942 C   0  0  1  0  0  0  0  0  0  0  0  0
    1.0818    2.4151   -0.0604 C   0  0  0  0  0  0  0  0  0  0  0  0
   -0.2129    2.0166   -0.7957 C   0  0  0  0  0  0  0  0  0  0  0  0
    0.0447   -2.2700    1.3393 C   0  0  0  0  0  0  0  0  0  0  0  0
    2.9015    1.2088   -1.4163 C   0  0  0  0  0  0  0  0  0  0  0  0
   -2.4327    1.1087    0.2565 C   0  0  0  0  0  0  0  0  0  0  0  0
   -3.1205   -0.2047    0.2142 C   0  0  0  0  0  0  0  0  0  0  0  0
   -3.0892    2.2276    0.5715 C   0  0  0  0  0  0  0  0  0  0  0  0
    0.7230   -0.7062   -1.8419 H   0  0  0  0  0  0  0  0  0  0  0  0
    1.4783    0.3484    1.7771 H   0  0  0  0  0  0  0  0  0  0  0  0
   -1.5031   -0.0857   -1.9811 H   0  0  0  0  0  0  0  0  0  0  0  0
    2.5558   -3.0208    0.2541 H   0  0  0  0  0  0  0  0  0  0  0  0
    2.5738   -1.8356   -1.0297 H   0  0  0  0  0  0  0  0  0  0  0  0
    2.9400   -1.4179    1.9356 H   0  0  0  0  0  0  0  0  0  0  0  0
    3.9633   -0.8936    0.6178 H   0  0  0  0  0  0  0  0  0  0  0  0
   -0.5081    0.6213    0.8472 H   0  0  0  0  0  0  0  0  0  0  0  0
    1.4674    3.3376   -0.5124 H   0  0  0  0  0  0  0  0  0  0  0  0
    0.8394    2.6672    0.9801 H   0  0  0  0  0  0  0  0  0  0  0  0
   -0.8307    2.9182   -0.8745 H   0  0  0  0  0  0  0  0  0  0  0  0
    0.0320    1.7349   -1.8263 H   0  0  0  0  0  0  0  0  0  0  0  0
    0.5875   -3.0664    1.8596 H   0  0  0  0  0  0  0  0  0  0  0  0
   -0.9813   -2.6246    1.2015 H   0  0  0  0  0  0  0  0  0  0  0  0
    0.0134   -1.3997    1.9991 H   0  0  0  0  0  0  0  0  0  0  0  0
    3.6929    0.4553   -1.3632 H   0  0  0  0  0  0  0  0  0  0  0  0
    3.3708    2.1559   -1.7038 H   0  0  0  0  0  0  0  0  0  0  0  0
    2.2184    0.9203   -2.2185 H   0  0  0  0  0  0  0  0  0  0  0  0
   -2.5812    3.1844    0.6154 H   0  0  0  0  0  0  0  0  0  0  0  0
   -4.1489    2.2204    0.8039 H   0  0  0  0  0  0  0  0  0  0  0  0
  1  5  1  0  0  0  0
  1  6  1  0  0  0  0
  2  7  1  0  0  0  0
  2  8  1  0  0  0  0
  3  9  1  0  0  0  0
  3 18  1  0  0  0  0
  4 18  2  0  0  0  0
  5  6  1  0  0  0  0
  5 10  1  0  0  0  0
  5 15  1  0  0  0  0
  6  9  1  0  0  0  0
  6 20  1  0  0  0  0
  7  8  1  0  0  0  0
  7 13  1  0  0  0  0
  7 16  1  0  0  0  0
  8 11  1  0  0  0  0
  8 21  1  0  0  0  0
  9 12  1  0  0  0  0
  9 22  1  0  0  0  0
 10 11  1  0  0  0  0
 10 23  1  0  0  0  0
 10 24  1  0  0  0  0
 11 25  1  0  0  0  0
 11 26  1  0  0  0  0
 12 14  1  0  0  0  0
 12 17  1  0  0  0  0
 12 27  1  0  0  0  0
 13 14  1  0  0  0  0
 13 28  1  0  0  0  0
 13 29  1  0  0  0  0
 14 30  1  0  0  0  0
 14 31  1  0  0  0  0
 15 32  1  0  0  0  0
 15 33  1  0  0  0  0
 15 34  1  0  0  0  0
 16 35  1  0  0  0  0
 16 36  1  0  0  0  0
 16 37  1  0  0  0  0
 17 18  1  0  0  0  0
 17 19  2  0  0  0  0
 19 38  1  0  0  0  0
 19 39  1  0  0  0  0
M  END
> <PUBCHEM_COMPOUND_CID>
145707084

> <PUBCHEM_CONFORMER_RMSD>
0.6

> <PUBCHEM_CONFORMER_DIVERSEORDER>
1

> <PUBCHEM_MMFF94_PARTIAL_CHARGES>
22
1 -0.3
10 0.09
11 0.09
12 0.14
13 0.09
15 0.09
16 0.09
17 -0.12
18 0.71
19 -0.3
2 -0.3
20 0.1
21 0.1
3 -0.43
38 0.15
39 0.15
4 -0.57
5 -0.04
6 -0.05
7 -0.04
8 -0.05
9 0.38

> <PUBCHEM_EFFECTIVE_ROTOR_COUNT>
1.4

> <PUBCHEM_PHARMACOPHORE_FEATURES>
4
1 1 acceptor
1 2 acceptor
1 4 acceptor
5 3 9 12 17 18 rings

> <PUBCHEM_HEAVY_ATOM_COUNT>
19

> <PUBCHEM_ATOM_DEF_STEREO_COUNT>
6

> <PUBCHEM_ATOM_UDEF_STEREO_COUNT>
0

> <PUBCHEM_BOND_DEF_STEREO_COUNT>
0

> <PUBCHEM_BOND_UDEF_STEREO_COUNT>
0

> <PUBCHEM_ISOTOPIC_ATOM_COUNT>
0

> <PUBCHEM_COMPONENT_COUNT>
1

> <PUBCHEM_CACTVS_TAUTO_COUNT>
-1

> <PUBCHEM_CONFORMER_ID>
08AF504C00000001

> <PUBCHEM_MMFF94_ENERGY>
47.876

> <PUBCHEM_FEATURE_SELFOVERLAP>
20.298

> <PUBCHEM_SHAPE_FINGERPRINT>
10967382 1 18410291449344224661
10980938 120 18411423894918467373
11578080 2 16952812740146957927
12011746 2 18334018323414716087
12035759 4 17914872435545248431
12382932 28 18195522597745583601
12633257 1 17972594394736903145
12696612 119 18338232644188920246
13140716 1 18266172842495760256
14178342 30 18411412882617617713
14223421 5 18410014295595159265
14386348 128 18410292497559149988
14787075 74 17899134090435274291
15309172 13 18337105769298289997
15775835 57 18201434826339342192
15881359 60 17898255464374069844
16945 1 18270112551624352749
18981168 100 15840165290272927233
20559304 39 18410292527444559832
20600515 1 17331975919007873590
20645476 183 17679310920662732844
20691752 17 17895490128211004493
20905425 154 18268999678263895076
21501502 16 18338241453536219861
2334 1 18410007736700277836
23388829 49 18341321293058703557
23419403 2 11255412680661560836
23463225 33 18408601435558632828
23557571 272 16904978358254167982
23559900 14 18054787274507596215
2637199 183 18264791980846180452
2748010 2 18194100959428627708
44154327 71 18335707186207328685
5939293 188 18196647398167185216
7364860 26 18128541466035991455
84936 31 16414068556591278718

> <PUBCHEM_SHAPE_MULTIPOLES>
367.53
5.32
3
1.2
2.88
0.17
-0.07
-1.11
1.31
-0.77
-0.03
-0.47
0.16
-0.37

> <PUBCHEM_SHAPE_SELFOVERLAP>
779.641

> <PUBCHEM_SHAPE_VOLUME>
207.6

> <PUBCHEM_COORDINATE_TYPE>
2
5
10

$$$$
