149721
  -OEChem-03052615013D

 53 56  0     0  0  0  0  0  0999 V2000
   -5.6690    1.1791   -1.0344 S   0  0  0  0  0  0  0  0  0  0  0  0
    4.6810    4.4826    0.1954 O   0  0  0  0  0  0  0  0  0  0  0  0
    6.0695    2.9453   -0.9468 O   0  0  0  0  0  0  0  0  0  0  0  0
   -6.2168   -0.0558   -0.5036 O   0  0  0  0  0  0  0  0  0  0  0  0
   -5.5513    2.3563   -0.1936 O   0  0  0  0  0  0  0  0  0  0  0  0
   -0.0251   -0.6699    1.2721 N   0  0  0  0  0  0  0  0  0  0  0  0
    3.5315   -1.3885   -0.7994 N   0  0  0  0  0  0  0  0  0  0  0  0
   -2.4526   -0.1588    2.5142 N   0  0  0  0  0  0  0  0  0  0  0  0
    4.8856    3.1896   -0.2656 N   0  0  0  0  0  0  0  0  0  0  0  0
   -4.2638    0.8903   -1.8040 N   0  0  0  0  0  0  0  0  0  0  0  0
    1.1736   -0.9120    0.5742 C   0  0  0  0  0  0  0  0  0  0  0  0
    2.0845    0.1309    0.3779 C   0  0  0  0  0  0  0  0  0  0  0  0
    1.4428   -2.1934    0.0830 C   0  0  0  0  0  0  0  0  0  0  0  0
    3.2672   -0.1561   -0.3242 C   0  0  0  0  0  0  0  0  0  0  0  0
    2.6508   -2.3895   -0.6076 C   0  0  0  0  0  0  0  0  0  0  0  0
   -1.0267   -0.3015    0.5488 C   0  0  0  0  0  0  0  0  0  0  0  0
   -2.3601   -0.0123    1.1596 C   0  0  0  0  0  0  0  0  0  0  0  0
    1.8395    1.4284    0.8605 C   0  0  0  0  0  0  0  0  0  0  0  0
    4.1780    0.8781   -0.5229 C   0  0  0  0  0  0  0  0  0  0  0  0
    0.5454   -3.2600    0.2654 C   0  0  0  0  0  0  0  0  0  0  0  0
    3.9378    2.1687   -0.0446 C   0  0  0  0  0  0  0  0  0  0  0  0
    2.9246   -3.6631   -1.0992 C   0  0  0  0  0  0  0  0  0  0  0  0
    2.7663    2.4448    0.6486 C   0  0  0  0  0  0  0  0  0  0  0  0
   -3.3769    0.3673    0.3739 C   0  0  0  0  0  0  0  0  0  0  0  0
   -0.8990   -0.1499   -0.9210 C   0  0  0  0  0  0  0  0  0  0  0  0
   -3.2482    0.5185   -1.0919 C   0  0  0  0  0  0  0  0  0  0  0  0
    0.8428   -4.5237   -0.2359 C   0  0  0  0  0  0  0  0  0  0  0  0
   -1.9256    0.2295   -1.6826 C   0  0  0  0  0  0  0  0  0  0  0  0
    2.0349   -4.7253   -0.9196 C   0  0  0  0  0  0  0  0  0  0  0  0
   -1.6219    0.6230    3.4202 C   0  0  0  0  0  0  0  0  0  0  0  0
   -3.5428   -0.9081    3.1245 C   0  0  0  0  0  0  0  0  0  0  0  0
   -6.6761    1.6354   -2.4215 C   0  0  0  0  0  0  0  0  0  0  0  0
    0.9357    1.6756    1.4105 H   0  0  0  0  0  0  0  0  0  0  0  0
    5.0954    0.6582   -1.0669 H   0  0  0  0  0  0  0  0  0  0  0  0
   -0.3924   -3.1362    0.8012 H   0  0  0  0  0  0  0  0  0  0  0  0
    3.8523   -3.8465   -1.6384 H   0  0  0  0  0  0  0  0  0  0  0  0
   -4.3009    0.5651    0.8975 H   0  0  0  0  0  0  0  0  0  0  0  0
    2.5502    3.4370    1.0341 H   0  0  0  0  0  0  0  0  0  0  0  0
    0.0287   -0.3384   -1.4458 H   0  0  0  0  0  0  0  0  0  0  0  0
    0.1488   -5.3460   -0.0923 H   0  0  0  0  0  0  0  0  0  0  0  0
   -1.8166    0.3362   -2.7562 H   0  0  0  0  0  0  0  0  0  0  0  0
    2.2769   -5.7076   -1.3146 H   0  0  0  0  0  0  0  0  0  0  0  0
   -2.2402    1.1098    4.1826 H   0  0  0  0  0  0  0  0  0  0  0  0
   -0.9020   -0.0268    3.9283 H   0  0  0  0  0  0  0  0  0  0  0  0
   -1.0718    1.4147    2.8998 H   0  0  0  0  0  0  0  0  0  0  0  0
   -3.2259   -1.3403    4.0800 H   0  0  0  0  0  0  0  0  0  0  0  0
   -3.8660   -1.7364    2.4838 H   0  0  0  0  0  0  0  0  0  0  0  0
   -4.4005   -0.2534    3.3113 H   0  0  0  0  0  0  0  0  0  0  0  0
   -6.7188    0.7978   -3.1204 H   0  0  0  0  0  0  0  0  0  0  0  0
   -6.2443    2.5170   -2.8994 H   0  0  0  0  0  0  0  0  0  0  0  0
   -7.6787    1.8649   -2.0540 H   0  0  0  0  0  0  0  0  0  0  0  0
    4.5979    4.9762   -0.6380 H   0  0  0  0  0  0  0  0  0  0  0  0
    5.9486    3.4829   -1.7476 H   0  0  0  0  0  0  0  0  0  0  0  0
  1  4  2  0  0  0  0
  1  5  2  0  0  0  0
  1 10  1  0  0  0  0
  1 32  1  0  0  0  0
  2  9  1  0  0  0  0
  2 52  1  0  0  0  0
  3  9  1  0  0  0  0
  3 53  1  0  0  0  0
  6 11  1  0  0  0  0
  6 16  2  0  0  0  0
  7 14  2  0  0  0  0
  7 15  1  0  0  0  0
  8 17  1  0  0  0  0
  8 30  1  0  0  0  0
  8 31  1  0  0  0  0
  9 21  1  0  0  0  0
 10 26  2  3  0  0  0
 11 12  2  0  0  0  0
 11 13  1  0  0  0  0
 12 14  1  0  0  0  0
 12 18  1  0  0  0  0
 13 15  1  0  0  0  0
 13 20  2  0  0  0  0
 14 19  1  0  0  0  0
 15 22  2  0  0  0  0
 16 17  1  0  0  0  0
 16 25  1  0  0  0  0
 17 24  2  0  0  0  0
 18 23  2  0  0  0  0
 18 33  1  0  0  0  0
 19 21  2  0  0  0  0
 19 34  1  0  0  0  0
 20 27  1  0  0  0  0
 20 35  1  0  0  0  0
 21 23  1  0  0  0  0
 22 29  1  0  0  0  0
 22 36  1  0  0  0  0
 23 38  1  0  0  0  0
 24 26  1  0  0  0  0
 24 37  1  0  0  0  0
 25 28  2  0  0  0  0
 25 39  1  0  0  0  0
 26 28  1  0  0  0  0
 27 29  2  0  0  0  0
 27 40  1  0  0  0  0
 28 41  1  0  0  0  0
 29 42  1  0  0  0  0
 30 43  1  0  0  0  0
 30 44  1  0  0  0  0
 30 45  1  0  0  0  0
 31 46  1  0  0  0  0
 31 47  1  0  0  0  0
 31 48  1  0  0  0  0
 32 49  1  0  0  0  0
 32 50  1  0  0  0  0
 32 51  1  0  0  0  0
M  END
> <PUBCHEM_COMPOUND_CID>
149721

> <PUBCHEM_CONFORMER_RMSD>
0.8

> <PUBCHEM_CONFORMER_DIVERSEORDER>
2
1

> <PUBCHEM_MMFF94_PARTIAL_CHARGES>
42
1 1.38
10 -0.64
11 0.18
14 0.31
15 0.31
16 0.42
17 0.11
18 -0.15
19 -0.15
2 -0.38
20 -0.15
21 0.1
22 -0.15
23 -0.15
24 -0.14
25 -0.14
26 0.42
27 -0.15
28 -0.14
29 -0.15
3 -0.38
30 0.37
31 0.37
32 0.11
33 0.15
34 0.15
35 0.15
36 0.15
37 0.15
38 0.15
39 0.15
4 -0.65
40 0.15
41 0.15
42 0.15
5 -0.65
52 0.4
53 0.4
6 -0.63
7 -0.62
8 -0.84
9 -0.14

> <PUBCHEM_EFFECTIVE_ROTOR_COUNT>
4

> <PUBCHEM_PHARMACOPHORE_FEATURES>
15
1 10 acceptor
1 10 donor
1 2 acceptor
1 2 anion
1 3 acceptor
1 3 anion
1 4 acceptor
1 5 acceptor
1 6 acceptor
1 7 acceptor
1 8 cation
6 12 14 18 19 21 23 rings
6 13 15 20 22 27 29 rings
6 16 17 24 25 26 28 rings
6 7 11 12 13 14 15 rings

> <PUBCHEM_HEAVY_ATOM_COUNT>
32

> <PUBCHEM_ATOM_DEF_STEREO_COUNT>
0

> <PUBCHEM_ATOM_UDEF_STEREO_COUNT>
0

> <PUBCHEM_BOND_DEF_STEREO_COUNT>
0

> <PUBCHEM_BOND_UDEF_STEREO_COUNT>
1

> <PUBCHEM_ISOTOPIC_ATOM_COUNT>
0

> <PUBCHEM_COMPONENT_COUNT>
1

> <PUBCHEM_CACTVS_TAUTO_COUNT>
1

> <PUBCHEM_CONFORMER_ID>
000248D900000002

> <PUBCHEM_MMFF94_ENERGY>
119.0192

> <PUBCHEM_FEATURE_SELFOVERLAP>
76.312

> <PUBCHEM_SHAPE_FINGERPRINT>
10165383 225 18050038715662302466
105312 117 18192712469938482612
10673678 19 18410288150978633997
10675989 125 18341330007352863200
10693767 8 17845095057009954222
10816530 23 18336258016269592203
11578080 2 18261689111951291849
11582403 64 17172321612385825102
11621639 254 17618500329818347685
12633046 712 17832177964030638595
12633257 1 15574990723267122429
12730499 353 18408887334504580807
12788726 201 16917066608375348715
13009979 54 17058085485175434875
1361 2 18337382838123728821
13911987 19 18268157620008825920
14468879 13 18113898277799249545
15324884 4 17823726142380164315
15439362 3 18340482353271716204
15444296 8 16760864256530712318
15842332 3 17416980434435889019
16752209 62 15626222382175325103
17980427 23 17023463186945233127
17980427 26 17912961367839176362
1813 80 17484526637813246926
18915476 22 18410301297968193203
21033648 29 18042118933513784368
21641784 216 16751009927043404236
21792964 463 18128842801469948801
22182313 1 17750255663548282091
23522609 53 17703518710387016673
23557571 272 17313970557510801083
23559900 14 18265610996692052571
238 59 18337387145522635258
244849 19 18114761330187303667
283562 15 17404868541548105018
3004659 81 17416952942693144591
34797466 226 18335410224586176093
376196 1 18187921815564871768
4015057 19 18047481019551315851
46194498 28 18264478499593591935
469060 322 17172645027855629954
5223283 242 17545872734270978301
57527295 17 17538570907035894235
59755656 520 17983882213558092024
633830 44 17772783569889375226
6677587 24 17757785110068088389
70251023 43 18124591977472490159

> <PUBCHEM_SHAPE_MULTIPOLES>
614.01
12.4
5.01
2.26
14.14
2.71
1.96
-11.77
-6.79
-10.34
-1.38
3.96
-0.15
1.85

> <PUBCHEM_SHAPE_SELFOVERLAP>
1341.205

> <PUBCHEM_SHAPE_VOLUME>
336.8

> <PUBCHEM_COORDINATE_TYPE>
2
5
10

$$$$
