101569429
  -OEChem-02172602453D

 78 83  0     1  0  0  0  0  0999 V2000
   -1.8832   -5.5525    0.0201 O   0  0  0  0  0  0  0  0  0  0  0  0
   -7.6810    0.8242    0.9918 O   0  0  0  0  0  0  0  0  0  0  0  0
   -5.9544    0.2294    2.4016 O   0  0  0  0  0  0  0  0  0  0  0  0
   -1.0915    0.2956   -0.8566 N   0  0  0  0  0  0  0  0  0  0  0  0
    0.8068   -1.7970   -0.1848 N   0  0  0  0  0  0  0  0  0  0  0  0
    1.1429    2.2210   -0.7210 N   0  0  0  0  0  0  0  0  0  0  0  0
    2.9740   -0.1478    0.0210 N   0  0  0  0  0  0  0  0  0  0  0  0
    3.0167    4.9250    2.1866 N   0  0  0  0  0  0  0  0  0  0  0  0
   -3.4009   -0.2159   -1.0640 C   0  0  1  0  0  0  0  0  0  0  0  0
   -3.1357    1.1481   -1.7202 C   0  0  1  0  0  0  0  0  0  0  0  0
   -1.9782   -0.6538   -0.7961 C   0  0  0  0  0  0  0  0  0  0  0  0
   -4.1723   -0.0761    0.2454 C   0  0  0  0  0  0  0  0  0  0  0  0
   -1.7322    1.4458   -1.2373 C   0  0  0  0  0  0  0  0  0  0  0  0
   -1.6492   -2.0536   -0.4799 C   0  0  0  0  0  0  0  0  0  0  0  0
   -3.1862    1.0597   -3.2456 C   0  0  0  0  0  0  0  0  0  0  0  0
   -2.5900   -3.2391   -0.4369 C   0  0  0  0  0  0  0  0  0  0  0  0
   -0.3913   -2.4132   -0.2399 C   0  0  0  0  0  0  0  0  0  0  0  0
   -5.6216    0.3238   -0.0059 C   0  0  0  0  0  0  0  0  0  0  0  0
   -0.2487   -3.8045   -0.0139 C   0  0  0  0  0  0  0  0  0  0  0  0
   -1.2360    2.6911   -1.1480 C   0  0  0  0  0  0  0  0  0  0  0  0
   -1.6048   -4.3746   -0.1199 C   0  0  0  0  0  0  0  0  0  0  0  0
    1.0265   -4.1225    0.1970 C   0  0  0  0  0  0  0  0  0  0  0  0
    0.0461    3.0589   -0.6562 C   0  0  0  0  0  0  0  0  0  0  0  0
    1.6460   -2.7688    0.0655 C   0  0  0  0  0  0  0  0  0  0  0  0
    0.4864    4.2495   -0.1099 C   0  0  0  0  0  0  0  0  0  0  0  0
    2.2589    2.8443   -0.1979 C   0  0  0  0  0  0  0  0  0  0  0  0
    1.8636    4.1160    0.1753 C   0  0  0  0  0  0  0  0  0  0  0  0
   -6.4022    0.4422    1.2832 C   0  0  0  0  0  0  0  0  0  0  0  0
    3.1127   -2.5917    0.1825 C   0  0  0  0  0  0  0  0  0  0  0  0
    3.6318   -1.3525    0.1231 C   0  0  0  0  0  0  0  0  0  0  0  0
    1.6940   -5.4077    0.4669 C   0  0  0  0  0  0  0  0  0  0  0  0
    3.8164    0.9273   -0.0584 C   0  0  0  0  0  0  0  0  0  0  0  0
    5.0572   -1.0044    0.1379 C   0  0  0  0  0  0  0  0  0  0  0  0
    3.5469    2.2398   -0.1608 C   0  0  0  0  0  0  0  0  0  0  0  0
    5.1701    0.3419    0.0228 C   0  0  0  0  0  0  0  0  0  0  0  0
   -0.3341    5.4569    0.1331 C   0  0  0  0  0  0  0  0  0  0  0  0
    2.7274    5.1622    0.7669 C   0  0  0  0  0  0  0  0  0  0  0  0
    6.1318   -2.0298    0.2546 C   0  0  0  0  0  0  0  0  0  0  0  0
    6.4110    1.1674   -0.0180 C   0  0  0  0  0  0  0  0  0  0  0  0
    6.2757   -2.5452    1.6770 C   0  0  0  0  0  0  0  0  0  0  0  0
   -8.5493    0.9806    2.1188 C   0  0  0  0  0  0  0  0  0  0  0  0
   -3.8982   -0.9196   -1.7403 H   0  0  0  0  0  0  0  0  0  0  0  0
   -3.8328    1.9241   -1.3895 H   0  0  0  0  0  0  0  0  0  0  0  0
   -3.6900    0.6573    0.9055 H   0  0  0  0  0  0  0  0  0  0  0  0
   -4.1518   -1.0227    0.7979 H   0  0  0  0  0  0  0  0  0  0  0  0
   -4.1923    0.7831   -3.5784 H   0  0  0  0  0  0  0  0  0  0  0  0
   -2.4852    0.3137   -3.6370 H   0  0  0  0  0  0  0  0  0  0  0  0
   -2.9365    2.0241   -3.7014 H   0  0  0  0  0  0  0  0  0  0  0  0
   -3.3206   -3.1531    0.3697 H   0  0  0  0  0  0  0  0  0  0  0  0
   -3.0629   -3.4142   -1.4059 H   0  0  0  0  0  0  0  0  0  0  0  0
   -6.1108   -0.4342   -0.6282 H   0  0  0  0  0  0  0  0  0  0  0  0
   -5.6824    1.2911   -0.5131 H   0  0  0  0  0  0  0  0  0  0  0  0
   -1.8899    3.5088   -1.4453 H   0  0  0  0  0  0  0  0  0  0  0  0
    1.1319    1.2967   -1.1291 H   0  0  0  0  0  0  0  0  0  0  0  0
    3.7282   -3.4789    0.2633 H   0  0  0  0  0  0  0  0  0  0  0  0
    0.9726   -6.2298    0.5115 H   0  0  0  0  0  0  0  0  0  0  0  0
    2.2218   -5.3739    1.4249 H   0  0  0  0  0  0  0  0  0  0  0  0
    2.4173   -5.6401   -0.3206 H   0  0  0  0  0  0  0  0  0  0  0  0
    4.3838    2.9345   -0.1712 H   0  0  0  0  0  0  0  0  0  0  0  0
    1.9694   -0.0769    0.0380 H   0  0  0  0  0  0  0  0  0  0  0  0
   -0.1404    6.2093   -0.6382 H   0  0  0  0  0  0  0  0  0  0  0  0
   -1.4061    5.2370    0.1298 H   0  0  0  0  0  0  0  0  0  0  0  0
   -0.1048    5.8974    1.1091 H   0  0  0  0  0  0  0  0  0  0  0  0
    2.2636    6.1499    0.6726 H   0  0  0  0  0  0  0  0  0  0  0  0
    3.6744    5.2251    0.2180 H   0  0  0  0  0  0  0  0  0  0  0  0
    5.9370   -2.8658   -0.4277 H   0  0  0  0  0  0  0  0  0  0  0  0
    7.0954   -1.6181   -0.0647 H   0  0  0  0  0  0  0  0  0  0  0  0
    6.4822    1.7088   -0.9670 H   0  0  0  0  0  0  0  0  0  0  0  0
    7.3171    0.5643    0.0835 H   0  0  0  0  0  0  0  0  0  0  0  0
    6.4168    1.8949    0.8006 H   0  0  0  0  0  0  0  0  0  0  0  0
    6.5148   -1.7303    2.3692 H   0  0  0  0  0  0  0  0  0  0  0  0
    7.0888   -3.2768    1.7295 H   0  0  0  0  0  0  0  0  0  0  0  0
    5.3655   -3.0361    2.0343 H   0  0  0  0  0  0  0  0  0  0  0  0
    3.6091    5.6778    2.5356 H   0  0  0  0  0  0  0  0  0  0  0  0
    3.5640    4.0703    2.2840 H   0  0  0  0  0  0  0  0  0  0  0  0
   -9.5325    1.2855    1.7508 H   0  0  0  0  0  0  0  0  0  0  0  0
   -8.1671    1.7590    2.7861 H   0  0  0  0  0  0  0  0  0  0  0  0
   -8.6528    0.0306    2.6517 H   0  0  0  0  0  0  0  0  0  0  0  0
  1 21  2  0  0  0  0
  2 28  1  0  0  0  0
  2 41  1  0  0  0  0
  3 28  2  0  0  0  0
  4 11  2  0  0  0  0
  4 13  1  0  0  0  0
  5 17  1  0  0  0  0
  5 24  2  0  0  0  0
  6 23  1  0  0  0  0
  6 26  1  0  0  0  0
  6 54  1  0  0  0  0
  7 30  1  0  0  0  0
  7 32  1  0  0  0  0
  7 60  1  0  0  0  0
  8 37  1  0  0  0  0
  8 74  1  0  0  0  0
  8 75  1  0  0  0  0
  9 10  1  0  0  0  0
  9 11  1  0  0  0  0
  9 12  1  0  0  0  0
  9 42  1  0  0  0  0
 10 13  1  0  0  0  0
 10 15  1  0  0  0  0
 10 43  1  0  0  0  0
 11 14  1  0  0  0  0
 12 18  1  0  0  0  0
 12 44  1  0  0  0  0
 12 45  1  0  0  0  0
 13 20  2  0  0  0  0
 14 16  1  0  0  0  0
 14 17  2  0  0  0  0
 15 46  1  0  0  0  0
 15 47  1  0  0  0  0
 15 48  1  0  0  0  0
 16 21  1  0  0  0  0
 16 49  1  0  0  0  0
 16 50  1  0  0  0  0
 17 19  1  0  0  0  0
 18 28  1  0  0  0  0
 18 51  1  0  0  0  0
 18 52  1  0  0  0  0
 19 21  1  0  0  0  0
 19 22  2  0  0  0  0
 20 23  1  0  0  0  0
 20 53  1  0  0  0  0
 22 24  1  0  0  0  0
 22 31  1  0  0  0  0
 23 25  2  0  0  0  0
 24 29  1  0  0  0  0
 25 27  1  0  0  0  0
 25 36  1  0  0  0  0
 26 27  2  0  0  0  0
 26 34  1  0  0  0  0
 27 37  1  0  0  0  0
 29 30  2  0  0  0  0
 29 55  1  0  0  0  0
 30 33  1  0  0  0  0
 31 56  1  0  0  0  0
 31 57  1  0  0  0  0
 31 58  1  0  0  0  0
 32 34  2  0  0  0  0
 32 35  1  0  0  0  0
 33 35  2  0  0  0  0
 33 38  1  0  0  0  0
 34 59  1  0  0  0  0
 35 39  1  0  0  0  0
 36 61  1  0  0  0  0
 36 62  1  0  0  0  0
 36 63  1  0  0  0  0
 37 64  1  0  0  0  0
 37 65  1  0  0  0  0
 38 40  1  0  0  0  0
 38 66  1  0  0  0  0
 38 67  1  0  0  0  0
 39 68  1  0  0  0  0
 39 69  1  0  0  0  0
 39 70  1  0  0  0  0
 40 71  1  0  0  0  0
 40 72  1  0  0  0  0
 40 73  1  0  0  0  0
 41 76  1  0  0  0  0
 41 77  1  0  0  0  0
 41 78  1  0  0  0  0
M  END
> <PUBCHEM_COMPOUND_CID>
101569429

> <PUBCHEM_CONFORMER_RMSD>
1

> <PUBCHEM_CONFORMER_DIVERSEORDER>
1
7
4
3
9
5
6
2
8

> <PUBCHEM_MMFF94_PARTIAL_CHARGES>
45
1 -0.57
10 0.14
11 0.37
13 0.03
14 -0.12
16 0.2
17 0.17
18 0.06
19 0.01
2 -0.43
20 -0.11
21 0.49
22 -0.12
23 -0.2
24 0.42
25 -0.18
26 -0.2
27 -0.18
28 0.66
29 -0.14
3 -0.57
30 0.1
31 0.14
32 0.1
33 -0.14
34 -0.11
35 -0.14
36 0.18
37 0.45
38 0.14
39 0.14
4 -0.62
41 0.28
5 -0.62
53 0.15
54 0.27
55 0.15
59 0.15
6 0.03
60 0.4
7 -0.6
74 0.36
75 0.36
8 -0.99
9 0.06

> <PUBCHEM_EFFECTIVE_ROTOR_COUNT>
6.6

> <PUBCHEM_PHARMACOPHORE_FEATURES>
16
1 1 acceptor
1 3 acceptor
1 4 acceptor
1 40 hydrophobe
1 5 acceptor
1 6 cation
1 6 donor
1 7 cation
1 7 donor
1 8 cation
1 8 donor
5 14 16 17 19 21 rings
5 4 9 10 11 13 rings
5 5 17 19 22 24 rings
5 6 23 25 26 27 rings
5 7 30 32 33 35 rings

> <PUBCHEM_HEAVY_ATOM_COUNT>
41

> <PUBCHEM_ATOM_DEF_STEREO_COUNT>
2

> <PUBCHEM_ATOM_UDEF_STEREO_COUNT>
0

> <PUBCHEM_BOND_DEF_STEREO_COUNT>
0

> <PUBCHEM_BOND_UDEF_STEREO_COUNT>
0

> <PUBCHEM_ISOTOPIC_ATOM_COUNT>
0

> <PUBCHEM_COMPONENT_COUNT>
1

> <PUBCHEM_CACTVS_TAUTO_COUNT>
1001

> <PUBCHEM_CONFORMER_ID>
060DD39500000001

> <PUBCHEM_MMFF94_ENERGY>
114.5672

> <PUBCHEM_FEATURE_SELFOVERLAP>
81.487

> <PUBCHEM_SHAPE_FINGERPRINT>
10290309 65 18262227816661677774
10439779 11 18052245495718767472
10653451 467 18187091633458735547
10908659 184 18334284341147072594
1100329 8 18338515343178588910
12107183 9 18342183293127483569
12422481 6 18115318902957844747
12677640 9 18197220463412316011
12758862 65 17896344479496646731
12925494 130 18267585895837580451
13140716 1 18266176312892359751
13165054 189 18130244705102950559
1361 2 18410580565468772987
14394314 77 18339361967417371500
14910700 183 18261965059617232003
15320467 1 18337945710857285782
15324884 4 17606088840969854141
15328829 1 17703213080471574581
15347590 135 18042126444968415931
15351339 4 17758936152787424628
16112460 7 18342745126109631984
20764821 26 18336532919840786782
20775438 99 17403685363097521998
3178227 256 18335709325312090657
3388396 114 17763429882891068942
392239 28 18409727331471422695
463206 1 18409442622468208134
56638632 10 18413385419916488069
9961470 85 18126841818596868897

> <PUBCHEM_SHAPE_MULTIPOLES>
801.25
14.59
8.44
1.59
15.12
0.81
0.1
0.49
-9.19
-5.79
-1.68
2.83
1.01
-0.24

> <PUBCHEM_SHAPE_SELFOVERLAP>
1769.005

> <PUBCHEM_SHAPE_VOLUME>
436.4

> <PUBCHEM_COORDINATE_TYPE>
2
5
10

$$$$
