15101818
  -OEChem-03052615073D

 44 44  0     1  0  0  0  0  0999 V2000
   -4.7107   -0.0673   -1.1504 O   0  0  0  0  0  0  0  0  0  0  0  0
    2.3121    0.0209   -0.4171 C   0  0  0  0  0  0  0  0  0  0  0  0
   -0.5599   -0.3460    0.2539 C   0  0  0  0  0  0  0  0  0  0  0  0
    1.7874   -1.2961    0.1689 C   0  0  0  0  0  0  0  0  0  0  0  0
    1.4339    1.1998    0.0207 C   0  0  0  0  0  0  0  0  0  0  0  0
    3.7662    0.2510   -0.0099 C   0  0  0  0  0  0  0  0  0  0  0  0
    0.3186   -1.5251   -0.1832 C   0  0  0  0  0  0  0  0  0  0  0  0
   -0.0348    0.9709   -0.3317 C   0  0  0  0  0  0  0  0  0  0  0  0
   -2.0137   -0.5758   -0.1546 C   0  0  2  0  0  0  0  0  0  0  0  0
    4.2824    1.5550   -0.6413 C   0  0  0  0  0  0  0  0  0  0  0  0
    3.8668    0.3562    1.5213 C   0  0  0  0  0  0  0  0  0  0  0  0
    4.6336   -0.9231   -0.4942 C   0  0  0  0  0  0  0  0  0  0  0  0
   -2.8789    0.6191    0.2757 C   0  0  0  0  0  0  0  0  0  0  0  0
   -2.5241   -1.8831    0.4593 C   0  0  0  0  0  0  0  0  0  0  0  0
   -4.3419    0.4959   -0.1212 C   0  0  0  0  0  0  0  0  0  0  0  0
   -5.3369    1.1476    0.8040 C   0  0  0  0  0  0  0  0  0  0  0  0
    2.2525   -0.0526   -1.5126 H   0  0  0  0  0  0  0  0  0  0  0  0
   -0.5043   -0.2715    1.3496 H   0  0  0  0  0  0  0  0  0  0  0  0
    1.8588   -1.3188    1.2602 H   0  0  0  0  0  0  0  0  0  0  0  0
    2.3482   -2.1547   -0.2133 H   0  0  0  0  0  0  0  0  0  0  0  0
    1.7416    2.1297   -0.4677 H   0  0  0  0  0  0  0  0  0  0  0  0
    1.4785    1.3676    1.1007 H   0  0  0  0  0  0  0  0  0  0  0  0
    0.2251   -1.6852   -1.2649 H   0  0  0  0  0  0  0  0  0  0  0  0
    0.0131   -2.4541    0.3087 H   0  0  0  0  0  0  0  0  0  0  0  0
   -0.5800    1.8338    0.0613 H   0  0  0  0  0  0  0  0  0  0  0  0
   -0.1544    0.9761   -1.4226 H   0  0  0  0  0  0  0  0  0  0  0  0
   -2.0801   -0.6730   -1.2466 H   0  0  0  0  0  0  0  0  0  0  0  0
    4.0909    1.5797   -1.7199 H   0  0  0  0  0  0  0  0  0  0  0  0
    5.3659    1.6507   -0.5012 H   0  0  0  0  0  0  0  0  0  0  0  0
    3.8384    2.4480   -0.1901 H   0  0  0  0  0  0  0  0  0  0  0  0
    3.5684   -0.5542    2.0467 H   0  0  0  0  0  0  0  0  0  0  0  0
    3.3197    1.2032    1.9423 H   0  0  0  0  0  0  0  0  0  0  0  0
    4.9159    0.5214    1.8020 H   0  0  0  0  0  0  0  0  0  0  0  0
    4.4467   -1.8456    0.0645 H   0  0  0  0  0  0  0  0  0  0  0  0
    5.6988   -0.6983   -0.3617 H   0  0  0  0  0  0  0  0  0  0  0  0
    4.4743   -1.1246   -1.5594 H   0  0  0  0  0  0  0  0  0  0  0  0
   -2.5569    1.5554   -0.1881 H   0  0  0  0  0  0  0  0  0  0  0  0
   -2.8236    0.7406    1.3641 H   0  0  0  0  0  0  0  0  0  0  0  0
   -2.0644   -2.7587   -0.0087 H   0  0  0  0  0  0  0  0  0  0  0  0
   -2.3312   -1.9221    1.5370 H   0  0  0  0  0  0  0  0  0  0  0  0
   -3.6025   -2.0044    0.3165 H   0  0  0  0  0  0  0  0  0  0  0  0
   -5.1215    2.2164    0.8784 H   0  0  0  0  0  0  0  0  0  0  0  0
   -6.3483    1.0168    0.4093 H   0  0  0  0  0  0  0  0  0  0  0  0
   -5.2809    0.6803    1.7903 H   0  0  0  0  0  0  0  0  0  0  0  0
  1 15  2  0  0  0  0
  2  4  1  0  0  0  0
  2  5  1  0  0  0  0
  2  6  1  0  0  0  0
  2 17  1  0  0  0  0
  3  7  1  0  0  0  0
  3  8  1  0  0  0  0
  3  9  1  0  0  0  0
  3 18  1  0  0  0  0
  4  7  1  0  0  0  0
  4 19  1  0  0  0  0
  4 20  1  0  0  0  0
  5  8  1  0  0  0  0
  5 21  1  0  0  0  0
  5 22  1  0  0  0  0
  6 10  1  0  0  0  0
  6 11  1  0  0  0  0
  6 12  1  0  0  0  0
  7 23  1  0  0  0  0
  7 24  1  0  0  0  0
  8 25  1  0  0  0  0
  8 26  1  0  0  0  0
  9 13  1  0  0  0  0
  9 14  1  0  0  0  0
  9 27  1  0  0  0  0
 10 28  1  0  0  0  0
 10 29  1  0  0  0  0
 10 30  1  0  0  0  0
 11 31  1  0  0  0  0
 11 32  1  0  0  0  0
 11 33  1  0  0  0  0
 12 34  1  0  0  0  0
 12 35  1  0  0  0  0
 12 36  1  0  0  0  0
 13 15  1  0  0  0  0
 13 37  1  0  0  0  0
 13 38  1  0  0  0  0
 14 39  1  0  0  0  0
 14 40  1  0  0  0  0
 14 41  1  0  0  0  0
 15 16  1  0  0  0  0
 16 42  1  0  0  0  0
 16 43  1  0  0  0  0
 16 44  1  0  0  0  0
M  END
> <PUBCHEM_COMPOUND_CID>
15101818

> <PUBCHEM_CONFORMER_RMSD>
0.6

> <PUBCHEM_CONFORMER_DIVERSEORDER>
1
38
29
28
46
6
30
36
16
17
31
8
24
15
35
18
7
43
39
23
19
41
13
21
32
42
26
47
27
4
37
11
34
44
45
12
5
40
22
9
25
20
3
2
10
33
14

> <PUBCHEM_MMFF94_PARTIAL_CHARGES>
4
1 -0.57
13 0.06
15 0.45
16 0.06

> <PUBCHEM_EFFECTIVE_ROTOR_COUNT>
5.2

> <PUBCHEM_PHARMACOPHORE_FEATURES>
4
1 1 acceptor
1 14 hydrophobe
4 6 10 11 12 hydrophobe
6 2 3 4 5 7 8 rings

> <PUBCHEM_HEAVY_ATOM_COUNT>
16

> <PUBCHEM_ATOM_DEF_STEREO_COUNT>
0

> <PUBCHEM_ATOM_UDEF_STEREO_COUNT>
1

> <PUBCHEM_BOND_DEF_STEREO_COUNT>
0

> <PUBCHEM_BOND_UDEF_STEREO_COUNT>
0

> <PUBCHEM_ISOTOPIC_ATOM_COUNT>
0

> <PUBCHEM_COMPONENT_COUNT>
1

> <PUBCHEM_CACTVS_TAUTO_COUNT>
3

> <PUBCHEM_CONFORMER_ID>
00E66F7A00000001

> <PUBCHEM_MMFF94_ENERGY>
42.129

> <PUBCHEM_FEATURE_SELFOVERLAP>
20.297

> <PUBCHEM_SHAPE_FINGERPRINT>
10014705 185 18114177566748343831
11089746 13 17704065183858836120
11132069 177 18409163329129233082
11401426 45 18342452655689205710
11471102 20 18410292514875935324
11543360 7 15769771385749457813
12236239 1 18060701672181041565
13380535 76 18410012130826608175
13675066 3 18342459282866090962
13760787 19 17385725824489926538
13760787 5 17603860126704837534
14123238 8 11674884398130429080
14252887 29 11963387423496710192
14897335 6 18410854356706974415
14943859 89 17676486159574577393
15196674 1 18337113457505923766
15375358 24 18411702088519220775
17834072 33 17561078120530309429
17834072 8 18412271614452564614
17834076 25 18272371962341697377
18186145 218 17603580863768140150
200 152 17561081414923232063
20300324 65 17704069603928816145
20645477 56 18040152911927377431
20645477 70 17846222111898586406
21267235 1 18337401447958649878
212847 35 18343866615285287544
231179 274 17748820808846309431
23402539 116 17846494816741884685
23402655 69 18343585174457130334
23557571 272 18058462048299220199
23559900 14 18412268341956516630
265663 24 17275101725866870773
296302 2 17895194436792226190
300161 21 18114175384804957884
335352 9 18409732833524748702
34797466 226 15984821596640878273
351380 180 17560797727695693832
3545911 37 18410297995206939995
4047638 21 17967254204516258996
4072396 5 18262502724406324978
42 15 14129055894044740337
449060 50 18260271841236267399
449060 62 18411702071523850946
495365 180 17346589786373375394
4990 188 17418379081898144444
5104073 3 18261110828627040104
5374978 207 17967810540146444880
542803 24 18202566172465266889
633830 44 18260829336660688502
69090 78 18202278108760837103
83771 10 8646772183709423847
9971528 1 18343580742177864460

> <PUBCHEM_SHAPE_MULTIPOLES>
323.4
10.9
1.62
0.95
5.53
0.33
0.17
-3.01
0.11
-0.07
0.02
-0.22
-0.09
-0.21

> <PUBCHEM_SHAPE_SELFOVERLAP>
633.871

> <PUBCHEM_SHAPE_VOLUME>
194

> <PUBCHEM_COORDINATE_TYPE>
2
5
10

$$$$
