15293070
  -OEChem-03052615083D

 83 87  0     1  0  0  0  0  0999 V2000
    7.6244    1.0185    0.5220 O   0  0  0  0  0  0  0  0  0  0  0  0
   -7.3191    1.3462    0.9111 O   0  0  0  0  0  0  0  0  0  0  0  0
   -7.4605    2.5993    0.1932 O   0  0  0  0  0  0  0  0  0  0  0  0
    2.3042   -0.6720    0.4519 C   0  0  2  0  0  0  0  0  0  0  0  0
    3.8635   -0.6286    0.0222 C   0  0  2  0  0  0  0  0  0  0  0  0
    3.3425   -1.3230    1.2529 C   0  0  0  0  0  0  0  0  0  0  0  0
    1.5871   -0.9513   -0.8596 C   0  0  1  0  0  0  0  0  0  0  0  0
    4.0809    0.6917   -0.6989 C   0  0  1  0  0  0  0  0  0  0  0  0
    0.1388   -1.4252   -0.5812 C   0  0  1  0  0  0  0  0  0  0  0  0
    1.5122    0.2342    1.4305 C   0  0  0  0  0  0  0  0  0  0  0  0
   -0.6738   -0.4256    0.3255 C   0  0  2  0  0  0  0  0  0  0  0  0
    4.9699   -1.5571   -0.4578 C   0  0  0  0  0  0  0  0  0  0  0  0
    1.8106    0.2866   -1.7892 C   0  0  0  0  0  0  0  0  0  0  0  0
    2.8018    1.3580   -1.2270 C   0  0  0  0  0  0  0  0  0  0  0  0
    0.0654   -0.2641    1.6620 C   0  0  0  0  0  0  0  0  0  0  0  0
    5.2518    1.4613   -0.0575 C   0  0  0  0  0  0  0  0  0  0  0  0
   -2.0499   -1.1427    0.3623 C   0  0  2  0  0  0  0  0  0  0  0  0
   -0.8248   -1.6030   -1.7633 C   0  0  0  0  0  0  0  0  0  0  0  0
    6.2827   -0.9705    0.1192 C   0  0  0  0  0  0  0  0  0  0  0  0
    6.5126    0.5276   -0.2223 C   0  0  2  0  0  0  0  0  0  0  0  0
   -2.2290   -1.6253   -1.1050 C   0  0  0  0  0  0  0  0  0  0  0  0
    0.3043   -2.8631    0.0459 C   0  0  0  0  0  0  0  0  0  0  0  0
   -0.9035    1.0048   -0.2499 C   0  0  0  0  0  0  0  0  0  0  0  0
   -3.2519   -0.3520    0.8669 C   0  0  1  0  0  0  0  0  0  0  0  0
    5.5125    2.7854   -0.8038 C   0  0  0  0  0  0  0  0  0  0  0  0
    4.9719    1.8130    1.4137 C   0  0  0  0  0  0  0  0  0  0  0  0
   -4.5275   -1.2143    0.7752 C   0  0  0  0  0  0  0  0  0  0  0  0
   -2.9908    0.1419    2.2929 C   0  0  0  0  0  0  0  0  0  0  0  0
   -5.7931   -0.4876    1.2427 C   0  0  0  0  0  0  0  0  0  0  0  0
   -6.0881    0.7921    0.4422 C   0  0  1  0  0  0  0  0  0  0  0  0
   -6.1995    0.5864   -1.0533 C   0  0  0  0  0  0  0  0  0  0  0  0
   -7.2128   -0.4037   -1.5569 C   0  0  0  0  0  0  0  0  0  0  0  0
   -5.4129    1.2621   -1.9064 C   0  0  0  0  0  0  0  0  0  0  0  0
    3.6816   -0.9284    2.2053 H   0  0  0  0  0  0  0  0  0  0  0  0
    3.2780   -2.4077    1.3037 H   0  0  0  0  0  0  0  0  0  0  0  0
    2.0992   -1.7832   -1.3666 H   0  0  0  0  0  0  0  0  0  0  0  0
    4.5006    0.4087   -1.6811 H   0  0  0  0  0  0  0  0  0  0  0  0
    1.4915    1.2724    1.1055 H   0  0  0  0  0  0  0  0  0  0  0  0
    1.9920    0.2817    2.4167 H   0  0  0  0  0  0  0  0  0  0  0  0
    4.8596   -2.5963   -0.1263 H   0  0  0  0  0  0  0  0  0  0  0  0
    5.0143   -1.6005   -1.5527 H   0  0  0  0  0  0  0  0  0  0  0  0
    0.8814    0.7651   -2.1013 H   0  0  0  0  0  0  0  0  0  0  0  0
    2.2375   -0.0920   -2.7292 H   0  0  0  0  0  0  0  0  0  0  0  0
    3.0543    2.0406   -2.0493 H   0  0  0  0  0  0  0  0  0  0  0  0
    2.3377    1.9956   -0.4760 H   0  0  0  0  0  0  0  0  0  0  0  0
   -0.4066    0.4635    2.3232 H   0  0  0  0  0  0  0  0  0  0  0  0
    0.0844   -1.2069    2.2190 H   0  0  0  0  0  0  0  0  0  0  0  0
   -1.9695   -2.0267    1.0086 H   0  0  0  0  0  0  0  0  0  0  0  0
   -0.7631   -0.7730   -2.4741 H   0  0  0  0  0  0  0  0  0  0  0  0
   -0.6406   -2.5201   -2.3335 H   0  0  0  0  0  0  0  0  0  0  0  0
    7.1372   -1.5578   -0.2386 H   0  0  0  0  0  0  0  0  0  0  0  0
    6.2862   -1.0856    1.2112 H   0  0  0  0  0  0  0  0  0  0  0  0
    6.8184    0.5506   -1.2777 H   0  0  0  0  0  0  0  0  0  0  0  0
   -2.9027   -0.9796   -1.6796 H   0  0  0  0  0  0  0  0  0  0  0  0
   -2.6457   -2.6387   -1.1249 H   0  0  0  0  0  0  0  0  0  0  0  0
    0.8149   -2.8495    1.0118 H   0  0  0  0  0  0  0  0  0  0  0  0
   -0.6409   -3.3943    0.1877 H   0  0  0  0  0  0  0  0  0  0  0  0
    0.8981   -3.5008   -0.6216 H   0  0  0  0  0  0  0  0  0  0  0  0
   -1.4269    0.9975   -1.2107 H   0  0  0  0  0  0  0  0  0  0  0  0
    0.0188    1.5646   -0.3936 H   0  0  0  0  0  0  0  0  0  0  0  0
   -1.4910    1.6314    0.4269 H   0  0  0  0  0  0  0  0  0  0  0  0
   -3.4012    0.5218    0.2271 H   0  0  0  0  0  0  0  0  0  0  0  0
    6.3733    3.3227   -0.3922 H   0  0  0  0  0  0  0  0  0  0  0  0
    4.6499    3.4572   -0.7303 H   0  0  0  0  0  0  0  0  0  0  0  0
    5.7076    2.6105   -1.8678 H   0  0  0  0  0  0  0  0  0  0  0  0
    5.7458    2.4766    1.8162 H   0  0  0  0  0  0  0  0  0  0  0  0
    4.0112    2.3283    1.5199 H   0  0  0  0  0  0  0  0  0  0  0  0
    4.9555    0.9285    2.0544 H   0  0  0  0  0  0  0  0  0  0  0  0
    7.8760    1.8808    0.1525 H   0  0  0  0  0  0  0  0  0  0  0  0
   -4.6823   -1.5789   -0.2451 H   0  0  0  0  0  0  0  0  0  0  0  0
   -4.4027   -2.1095    1.3985 H   0  0  0  0  0  0  0  0  0  0  0  0
   -2.5812   -0.6491    2.9295 H   0  0  0  0  0  0  0  0  0  0  0  0
   -3.8990    0.5054    2.7788 H   0  0  0  0  0  0  0  0  0  0  0  0
   -2.3257    1.0053    2.3110 H   0  0  0  0  0  0  0  0  0  0  0  0
   -6.6438   -1.1769    1.1521 H   0  0  0  0  0  0  0  0  0  0  0  0
   -5.7616   -0.2578    2.3131 H   0  0  0  0  0  0  0  0  0  0  0  0
   -5.3098    1.5293    0.6759 H   0  0  0  0  0  0  0  0  0  0  0  0
   -7.2595   -0.4205   -2.6512 H   0  0  0  0  0  0  0  0  0  0  0  0
   -6.9696   -1.4172   -1.2252 H   0  0  0  0  0  0  0  0  0  0  0  0
   -8.2128   -0.1484   -1.1922 H   0  0  0  0  0  0  0  0  0  0  0  0
   -4.6772    1.9768   -1.5528 H   0  0  0  0  0  0  0  0  0  0  0  0
   -5.4850    1.1159   -2.9790 H   0  0  0  0  0  0  0  0  0  0  0  0
   -7.1478    3.1663    0.9188 H   0  0  0  0  0  0  0  0  0  0  0  0
  1 20  1  0  0  0  0
  1 69  1  0  0  0  0
  2  3  1  0  0  0  0
  2 30  1  0  0  0  0
  3 83  1  0  0  0  0
  4  5  1  0  0  0  0
  4  6  1  0  0  0  0
  4  7  1  0  0  0  0
  4 10  1  0  0  0  0
  5  6  1  0  0  0  0
  5  8  1  0  0  0  0
  5 12  1  0  0  0  0
  6 34  1  0  0  0  0
  6 35  1  0  0  0  0
  7  9  1  0  0  0  0
  7 13  1  0  0  0  0
  7 36  1  0  0  0  0
  8 14  1  0  0  0  0
  8 16  1  0  0  0  0
  8 37  1  0  0  0  0
  9 11  1  0  0  0  0
  9 18  1  0  0  0  0
  9 22  1  0  0  0  0
 10 15  1  0  0  0  0
 10 38  1  0  0  0  0
 10 39  1  0  0  0  0
 11 15  1  0  0  0  0
 11 17  1  0  0  0  0
 11 23  1  0  0  0  0
 12 19  1  0  0  0  0
 12 40  1  0  0  0  0
 12 41  1  0  0  0  0
 13 14  1  0  0  0  0
 13 42  1  0  0  0  0
 13 43  1  0  0  0  0
 14 44  1  0  0  0  0
 14 45  1  0  0  0  0
 15 46  1  0  0  0  0
 15 47  1  0  0  0  0
 16 20  1  0  0  0  0
 16 25  1  0  0  0  0
 16 26  1  0  0  0  0
 17 21  1  0  0  0  0
 17 24  1  0  0  0  0
 17 48  1  0  0  0  0
 18 21  1  0  0  0  0
 18 49  1  0  0  0  0
 18 50  1  0  0  0  0
 19 20  1  0  0  0  0
 19 51  1  0  0  0  0
 19 52  1  0  0  0  0
 20 53  1  0  0  0  0
 21 54  1  0  0  0  0
 21 55  1  0  0  0  0
 22 56  1  0  0  0  0
 22 57  1  0  0  0  0
 22 58  1  0  0  0  0
 23 59  1  0  0  0  0
 23 60  1  0  0  0  0
 23 61  1  0  0  0  0
 24 27  1  0  0  0  0
 24 28  1  0  0  0  0
 24 62  1  0  0  0  0
 25 63  1  0  0  0  0
 25 64  1  0  0  0  0
 25 65  1  0  0  0  0
 26 66  1  0  0  0  0
 26 67  1  0  0  0  0
 26 68  1  0  0  0  0
 27 29  1  0  0  0  0
 27 70  1  0  0  0  0
 27 71  1  0  0  0  0
 28 72  1  0  0  0  0
 28 73  1  0  0  0  0
 28 74  1  0  0  0  0
 29 30  1  0  0  0  0
 29 75  1  0  0  0  0
 29 76  1  0  0  0  0
 30 31  1  0  0  0  0
 30 77  1  0  0  0  0
 31 32  1  0  0  0  0
 31 33  2  0  0  0  0
 32 78  1  0  0  0  0
 32 79  1  0  0  0  0
 32 80  1  0  0  0  0
 33 81  1  0  0  0  0
 33 82  1  0  0  0  0
M  END
> <PUBCHEM_COMPOUND_CID>
15293070

> <PUBCHEM_CONFORMER_RMSD>
1

> <PUBCHEM_CONFORMER_DIVERSEORDER>
6
2
3
4
11
12
1
8
10
5
13
7
9

> <PUBCHEM_MMFF94_PARTIAL_CHARGES>
21
1 -0.68
10 0.09
12 0.09
2 -0.28
20 0.28
3 -0.4
30 0.42
31 -0.28
32 0.14
33 -0.3
34 0.1
35 0.1
4 -0.19
5 -0.19
6 -0.2
69 0.4
7 0.09
8 0.09
81 0.15
82 0.15
83 0.4

> <PUBCHEM_EFFECTIVE_ROTOR_COUNT>
8.4

> <PUBCHEM_PHARMACOPHORE_FEATURES>
8
1 1 acceptor
1 1 donor
1 28 hydrophobe
3 16 25 26 hydrophobe
5 9 11 17 18 21 rings
6 4 7 9 10 11 15 rings
6 5 8 12 16 19 20 rings
7 4 5 6 7 8 13 14 rings

> <PUBCHEM_HEAVY_ATOM_COUNT>
33

> <PUBCHEM_ATOM_DEF_STEREO_COUNT>
8

> <PUBCHEM_ATOM_UDEF_STEREO_COUNT>
2

> <PUBCHEM_BOND_DEF_STEREO_COUNT>
0

> <PUBCHEM_BOND_UDEF_STEREO_COUNT>
0

> <PUBCHEM_ISOTOPIC_ATOM_COUNT>
0

> <PUBCHEM_COMPONENT_COUNT>
1

> <PUBCHEM_CACTVS_TAUTO_COUNT>
1

> <PUBCHEM_CONFORMER_ID>
00E95A8E00000006

> <PUBCHEM_MMFF94_ENERGY>
193.4766

> <PUBCHEM_FEATURE_SELFOVERLAP>
40.775

> <PUBCHEM_SHAPE_FINGERPRINT>
10 15 16805604784823729173
10066227 112 18408038515986357297
10299344 5 11097858488650810221
10319926 262 16588316015877447339
10554248 39 17989494008920548510
11963148 33 11963671170232540649
11991303 11 18201150057519212647
12236239 1 18412267272045683002
12788726 201 16988299611473202882
13673619 4 11600004349813851699
13685833 64 9727637198095416088
13782708 43 11239997850210866625
13811026 1 18114463444261951851
14849402 71 15864652667926571510
14856354 85 16128648683359795573
15082195 135 15194997336218478256
15131766 46 18048599510951075692
15142383 8 17676201373457689028
15183329 4 14908179738061245725
15352257 5 9511457823355116977
15840311 113 18334300867906998381
15849732 13 18408606972045745286
18681886 176 16271915022457153915
19958102 18 13326856630226068685
20511986 3 18201713011851216742
21033648 29 18187638159203924768
21130935 74 16660360420012859234
21150785 3 16774077405678153341
21267235 1 11097850792275222290
21859007 373 17894623721506363972
22122407 14 18188504556765204769
23569914 2 17611699700330548293
23569943 247 12749589888802525828
23576562 1 17773868878050312501
24771293 8 16951131810739189524
249057 3 18272937129273898574
2838139 119 18059857255540241993
3178227 256 13623537852442475849
3633792 109 18201444632240542442
397830 11 17677347137377253425
4093350 32 17749384828611026906
4340502 62 16950281810519637426
504843 32 18130788997275521863
5104073 3 14563394967670073353
58083652 198 13190345712176613759
6086070 43 17631726191990182587
6328613 192 18412826902105156361
999808 66 10592043579294213757

> <PUBCHEM_SHAPE_MULTIPOLES>
661.52
19.72
2.23
1.75
13.64
0.36
-0.07
10.85
0.2
-0.77
0.32
1.5
0.09
-0.02

> <PUBCHEM_SHAPE_SELFOVERLAP>
1390.55

> <PUBCHEM_SHAPE_VOLUME>
375.8

> <PUBCHEM_COORDINATE_TYPE>
2
5
10

$$$$
