15559404
  -OEChem-03052615013D

 82 85  0     1  0  0  0  0  0999 V2000
   -8.2844   -0.4271    0.6048 O   0  0  0  0  0  0  0  0  0  0  0  0
    0.2500    0.1549   -0.1362 C   0  0  1  0  0  0  0  0  0  0  0  0
   -0.7124   -0.6825   -1.0087 C   0  0  2  0  0  0  0  0  0  0  0  0
   -2.1900   -0.7122   -0.5982 C   0  0  2  0  0  0  0  0  0  0  0  0
   -2.7164    0.7524   -0.4830 C   0  0  1  0  0  0  0  0  0  0  0  0
   -4.2410    0.8250   -0.0659 C   0  0  2  0  0  0  0  0  0  0  0  0
    1.5386   -0.0345   -0.9855 C   0  0  2  0  0  0  0  0  0  0  0  0
   -0.2930    1.5874   -0.0873 C   0  0  0  0  0  0  0  0  0  0  0  0
   -4.5496   -0.1171    1.1379 C   0  0  2  0  0  0  0  0  0  0  0  0
   -1.7636    1.6303    0.3788 C   0  0  0  0  0  0  0  0  0  0  0  0
    0.0423   -1.9857   -1.2458 C   0  0  0  0  0  0  0  0  0  0  0  0
   -2.5223   -1.5599    0.6293 C   0  0  0  0  0  0  0  0  0  0  0  0
    1.5143   -1.5395   -1.3502 C   0  0  0  0  0  0  0  0  0  0  0  0
   -4.0144   -1.5457    0.9258 C   0  0  0  0  0  0  0  0  0  0  0  0
   -5.1235    0.4070   -1.2843 C   0  0  0  0  0  0  0  0  0  0  0  0
    0.4859   -0.3482    1.3064 C   0  0  0  0  0  0  0  0  0  0  0  0
    2.8581    0.4002   -0.3636 C   0  0  1  0  0  0  0  0  0  0  0  0
   -6.0572   -0.1738    1.4542 C   0  0  0  0  0  0  0  0  0  0  0  0
   -4.6113    2.2860    0.3054 C   0  0  0  0  0  0  0  0  0  0  0  0
   -6.6182    0.3166   -0.9702 C   0  0  0  0  0  0  0  0  0  0  0  0
   -6.9112   -0.5571    0.2459 C   0  0  2  0  0  0  0  0  0  0  0  0
    4.0211    0.1107   -1.3360 C   0  0  0  0  0  0  0  0  0  0  0  0
    2.7920    1.8798    0.0295 C   0  0  0  0  0  0  0  0  0  0  0  0
    5.4147    0.5820   -0.8888 C   0  0  0  0  0  0  0  0  0  0  0  0
    5.9899   -0.0872    0.3866 C   0  0  2  0  0  0  0  0  0  0  0  0
    7.3535    0.5377    0.8229 C   0  0  0  0  0  0  0  0  0  0  0  0
    6.0558   -1.6246    0.2104 C   0  0  0  0  0  0  0  0  0  0  0  0
    7.2467    2.0476    1.0720 C   0  0  0  0  0  0  0  0  0  0  0  0
    8.5047    0.2578   -0.1469 C   0  0  0  0  0  0  0  0  0  0  0  0
    6.5406   -2.3803    1.4406 C   0  0  0  0  0  0  0  0  0  0  0  0
   -0.7392   -0.1966   -2.0014 H   0  0  0  0  0  0  0  0  0  0  0  0
   -2.7172   -1.1836   -1.4394 H   0  0  0  0  0  0  0  0  0  0  0  0
   -2.6547    1.1851   -1.4939 H   0  0  0  0  0  0  0  0  0  0  0  0
    1.4127    0.5257   -1.9256 H   0  0  0  0  0  0  0  0  0  0  0  0
   -0.2280    2.0530   -1.0790 H   0  0  0  0  0  0  0  0  0  0  0  0
    0.2637    2.2280    0.5979 H   0  0  0  0  0  0  0  0  0  0  0  0
   -4.0464    0.2847    2.0285 H   0  0  0  0  0  0  0  0  0  0  0  0
   -2.0707    2.6805    0.3214 H   0  0  0  0  0  0  0  0  0  0  0  0
   -1.8402    1.3435    1.4327 H   0  0  0  0  0  0  0  0  0  0  0  0
   -0.0775   -2.6921   -0.4185 H   0  0  0  0  0  0  0  0  0  0  0  0
   -0.2896   -2.4870   -2.1607 H   0  0  0  0  0  0  0  0  0  0  0  0
   -2.0088   -1.2119    1.5232 H   0  0  0  0  0  0  0  0  0  0  0  0
   -2.2080   -2.5970    0.4679 H   0  0  0  0  0  0  0  0  0  0  0  0
    1.8931   -1.6989   -2.3658 H   0  0  0  0  0  0  0  0  0  0  0  0
    2.1264   -2.1408   -0.6681 H   0  0  0  0  0  0  0  0  0  0  0  0
   -4.5402   -2.0525    0.1095 H   0  0  0  0  0  0  0  0  0  0  0  0
   -4.2000   -2.1428    1.8275 H   0  0  0  0  0  0  0  0  0  0  0  0
   -4.9812    1.1193   -2.1074 H   0  0  0  0  0  0  0  0  0  0  0  0
   -4.8056   -0.5662   -1.6735 H   0  0  0  0  0  0  0  0  0  0  0  0
    1.2959    0.1931    1.8032 H   0  0  0  0  0  0  0  0  0  0  0  0
    0.7382   -1.4119    1.3449 H   0  0  0  0  0  0  0  0  0  0  0  0
   -0.3758   -0.1925    1.9552 H   0  0  0  0  0  0  0  0  0  0  0  0
    3.0560   -0.1842    0.5421 H   0  0  0  0  0  0  0  0  0  0  0  0
   -6.2468   -0.8843    2.2696 H   0  0  0  0  0  0  0  0  0  0  0  0
   -6.3952    0.7921    1.8503 H   0  0  0  0  0  0  0  0  0  0  0  0
   -4.1204    2.6013    1.2324 H   0  0  0  0  0  0  0  0  0  0  0  0
   -4.3169    2.9771   -0.4927 H   0  0  0  0  0  0  0  0  0  0  0  0
   -5.6827    2.4290    0.4679 H   0  0  0  0  0  0  0  0  0  0  0  0
   -7.0441    1.3165   -0.8249 H   0  0  0  0  0  0  0  0  0  0  0  0
   -7.1497   -0.0865   -1.8417 H   0  0  0  0  0  0  0  0  0  0  0  0
   -6.7444   -1.6098   -0.0070 H   0  0  0  0  0  0  0  0  0  0  0  0
    4.0649   -0.9540   -1.5845 H   0  0  0  0  0  0  0  0  0  0  0  0
    3.8060    0.6180   -2.2871 H   0  0  0  0  0  0  0  0  0  0  0  0
    3.7743    2.2788    0.2939 H   0  0  0  0  0  0  0  0  0  0  0  0
    2.3948    2.5015   -0.7790 H   0  0  0  0  0  0  0  0  0  0  0  0
    2.2049    2.0303    0.9357 H   0  0  0  0  0  0  0  0  0  0  0  0
    6.0974    0.3706   -1.7225 H   0  0  0  0  0  0  0  0  0  0  0  0
    5.4137    1.6703   -0.7968 H   0  0  0  0  0  0  0  0  0  0  0  0
   -8.8147   -0.6786   -0.1705 H   0  0  0  0  0  0  0  0  0  0  0  0
    5.2853    0.1127    1.2054 H   0  0  0  0  0  0  0  0  0  0  0  0
    7.6257    0.0928    1.7885 H   0  0  0  0  0  0  0  0  0  0  0  0
    6.6790   -1.8888   -0.6513 H   0  0  0  0  0  0  0  0  0  0  0  0
    5.0525   -2.0068   -0.0063 H   0  0  0  0  0  0  0  0  0  0  0  0
    7.1562    2.6147    0.1405 H   0  0  0  0  0  0  0  0  0  0  0  0
    8.1444    2.4109    1.5847 H   0  0  0  0  0  0  0  0  0  0  0  0
    6.3863    2.2808    1.7077 H   0  0  0  0  0  0  0  0  0  0  0  0
    9.4363    0.6942    0.2308 H   0  0  0  0  0  0  0  0  0  0  0  0
    8.3169    0.6894   -1.1348 H   0  0  0  0  0  0  0  0  0  0  0  0
    8.6799   -0.8147   -0.2686 H   0  0  0  0  0  0  0  0  0  0  0  0
    5.9596   -2.1034    2.3258 H   0  0  0  0  0  0  0  0  0  0  0  0
    6.4282   -3.4585    1.2860 H   0  0  0  0  0  0  0  0  0  0  0  0
    7.5980   -2.1879    1.6426 H   0  0  0  0  0  0  0  0  0  0  0  0
  1 21  1  0  0  0  0
  1 69  1  0  0  0  0
  2  3  1  0  0  0  0
  2  7  1  0  0  0  0
  2  8  1  0  0  0  0
  2 16  1  0  0  0  0
  3  4  1  0  0  0  0
  3 11  1  0  0  0  0
  3 31  1  0  0  0  0
  4  5  1  0  0  0  0
  4 12  1  0  0  0  0
  4 32  1  0  0  0  0
  5  6  1  0  0  0  0
  5 10  1  0  0  0  0
  5 33  1  0  0  0  0
  6  9  1  0  0  0  0
  6 15  1  0  0  0  0
  6 19  1  0  0  0  0
  7 13  1  0  0  0  0
  7 17  1  0  0  0  0
  7 34  1  0  0  0  0
  8 10  1  0  0  0  0
  8 35  1  0  0  0  0
  8 36  1  0  0  0  0
  9 14  1  0  0  0  0
  9 18  1  0  0  0  0
  9 37  1  0  0  0  0
 10 38  1  0  0  0  0
 10 39  1  0  0  0  0
 11 13  1  0  0  0  0
 11 40  1  0  0  0  0
 11 41  1  0  0  0  0
 12 14  1  0  0  0  0
 12 42  1  0  0  0  0
 12 43  1  0  0  0  0
 13 44  1  0  0  0  0
 13 45  1  0  0  0  0
 14 46  1  0  0  0  0
 14 47  1  0  0  0  0
 15 20  1  0  0  0  0
 15 48  1  0  0  0  0
 15 49  1  0  0  0  0
 16 50  1  0  0  0  0
 16 51  1  0  0  0  0
 16 52  1  0  0  0  0
 17 22  1  0  0  0  0
 17 23  1  0  0  0  0
 17 53  1  0  0  0  0
 18 21  1  0  0  0  0
 18 54  1  0  0  0  0
 18 55  1  0  0  0  0
 19 56  1  0  0  0  0
 19 57  1  0  0  0  0
 19 58  1  0  0  0  0
 20 21  1  0  0  0  0
 20 59  1  0  0  0  0
 20 60  1  0  0  0  0
 21 61  1  0  0  0  0
 22 24  1  0  0  0  0
 22 62  1  0  0  0  0
 22 63  1  0  0  0  0
 23 64  1  0  0  0  0
 23 65  1  0  0  0  0
 23 66  1  0  0  0  0
 24 25  1  0  0  0  0
 24 67  1  0  0  0  0
 24 68  1  0  0  0  0
 25 26  1  0  0  0  0
 25 27  1  0  0  0  0
 25 70  1  0  0  0  0
 26 28  1  0  0  0  0
 26 29  1  0  0  0  0
 26 71  1  0  0  0  0
 27 30  1  0  0  0  0
 27 72  1  0  0  0  0
 27 73  1  0  0  0  0
 28 74  1  0  0  0  0
 28 75  1  0  0  0  0
 28 76  1  0  0  0  0
 29 77  1  0  0  0  0
 29 78  1  0  0  0  0
 29 79  1  0  0  0  0
 30 80  1  0  0  0  0
 30 81  1  0  0  0  0
 30 82  1  0  0  0  0
M  END
> <PUBCHEM_COMPOUND_CID>
15559404

> <PUBCHEM_CONFORMER_RMSD>
1

> <PUBCHEM_CONFORMER_DIVERSEORDER>
1
10
6
7
12
11
9
2
8
4
3
5

> <PUBCHEM_MMFF94_PARTIAL_CHARGES>
3
1 -0.68
21 0.28
69 0.4

> <PUBCHEM_EFFECTIVE_ROTOR_COUNT>
8.2

> <PUBCHEM_PHARMACOPHORE_FEATURES>
10
1 1 acceptor
1 1 donor
1 23 hydrophobe
1 30 hydrophobe
3 26 28 29 hydrophobe
5 2 3 7 11 13 rings
6 17 22 24 25 26 27 hydrophobe
6 2 3 4 5 8 10 rings
6 4 5 6 9 12 14 rings
6 6 9 15 18 20 21 rings

> <PUBCHEM_HEAVY_ATOM_COUNT>
30

> <PUBCHEM_ATOM_DEF_STEREO_COUNT>
10

> <PUBCHEM_ATOM_UDEF_STEREO_COUNT>
0

> <PUBCHEM_BOND_DEF_STEREO_COUNT>
0

> <PUBCHEM_BOND_UDEF_STEREO_COUNT>
0

> <PUBCHEM_ISOTOPIC_ATOM_COUNT>
0

> <PUBCHEM_COMPONENT_COUNT>
1

> <PUBCHEM_CACTVS_TAUTO_COUNT>
1

> <PUBCHEM_CONFORMER_ID>
00ED6AEC00000001

> <PUBCHEM_MMFF94_ENERGY>
105.7415

> <PUBCHEM_FEATURE_SELFOVERLAP>
50.908

> <PUBCHEM_SHAPE_FINGERPRINT>
10 15 18343022211829777484
10299344 5 14490470894002542496
11315181 36 18040720273007676089
11719270 70 18411700959154241046
12236239 1 15719680939303234775
12516196 113 17203895149676506777
13533116 47 18334290926086362658
13811026 1 18334010553876815524
13914758 101 16515683317044410325
14251764 18 17917710223057993972
14251764 46 16950281814772302217
14849402 71 17417527033459877512
14856354 85 13623535653815048115
15021287 119 16515409577061103060
15183329 4 18334020475646823734
15461852 350 17131549543600110534
15849732 13 18261109682303385732
16994733 274 15554452868310060090
18335252 98 13039190329451420277
19301679 30 17532078420719258680
19841028 212 17676762073328952050
21130935 74 18337674113999959610
21150785 3 14405188373694203334
21521721 280 17632859750060960506
22224240 67 18131354124006442239
23035841 295 13840262597877829728
23559900 14 18187642543832874929
249057 25 17676784105582733013
3178227 256 18343025509921685737
3383291 50 18410016558922202947
34797466 226 17346602976487038348
3633792 109 17386277698186875919
4073 2 17968662739383828626
4093350 32 15267070203349833068
4098825 35 11600005448829502999
5104073 3 18198633128819644754
5758199 1 17346884446414368655
59682541 35 18272936059204406827
59755656 215 15864068745706047162
6081469 158 17312819382042876343
7226269 152 17489871540144984274

> <PUBCHEM_SHAPE_MULTIPOLES>
611.52
22.9
2.01
1.36
15.57
0.02
-0.01
-0.89
-6.09
1.47
-0.34
0
0.34
0.22

> <PUBCHEM_SHAPE_SELFOVERLAP>
1251.842

> <PUBCHEM_SHAPE_VOLUME>
353.4

> <PUBCHEM_COORDINATE_TYPE>
2
5
10

$$$$
