10115040
  -OEChem-02172602523D

 53 55  0     0  0  0  0  0  0999 V2000
    3.0527   -1.6057    0.4820 S   0  0  0  0  0  0  0  0  0  0  0  0
   -2.9005    2.9040   -0.8872 S   0  0  0  0  0  0  0  0  0  0  0  0
    4.4163    1.7336   -2.1447 O   0  0  0  0  0  0  0  0  0  0  0  0
    3.4555   -1.6450    1.8707 O   0  0  0  0  0  0  0  0  0  0  0  0
    3.6812   -2.4601   -0.5021 O   0  0  0  0  0  0  0  0  0  0  0  0
    2.7473    0.9975    2.0556 O   0  0  0  0  0  0  0  0  0  0  0  0
    0.6664    2.4438    1.1065 O   0  0  0  0  0  0  0  0  0  0  0  0
   -2.7867   -2.5261    0.3000 O   0  0  0  0  0  0  0  0  0  0  0  0
   -4.2740    0.5012   -2.0375 O   0  0  0  0  0  0  0  0  0  0  0  0
    1.4210    1.6150    0.2652 N   0  0  0  0  0  0  0  0  0  0  0  0
    3.2259    0.0739   -0.0958 C   0  0  0  0  0  0  0  0  0  0  0  0
    4.7068    0.4732   -0.0872 C   0  0  0  0  0  0  0  0  0  0  0  0
    2.6439    0.1969   -1.5095 C   0  0  0  0  0  0  0  0  0  0  0  0
    4.9407    1.7907   -0.8196 C   0  0  0  0  0  0  0  0  0  0  0  0
    3.0045    1.5316   -2.1545 C   0  0  0  0  0  0  0  0  0  0  0  0
    2.4482    0.9347    0.8650 C   0  0  0  0  0  0  0  0  0  0  0  0
    1.3114   -1.8792    0.4277 C   0  0  0  0  0  0  0  0  0  0  0  0
    0.7215   -2.3881   -0.7294 C   0  0  0  0  0  0  0  0  0  0  0  0
    0.5243   -1.5879    1.5419 C   0  0  0  0  0  0  0  0  0  0  0  0
   -0.6555   -2.6058   -0.7721 C   0  0  0  0  0  0  0  0  0  0  0  0
   -0.8528   -1.8056    1.4990 C   0  0  0  0  0  0  0  0  0  0  0  0
   -1.4427   -2.3146    0.3419 C   0  0  0  0  0  0  0  0  0  0  0  0
   -3.4243   -2.3995   -0.9701 C   0  0  0  0  0  0  0  0  0  0  0  0
   -4.8625   -1.9499   -0.7559 C   0  0  0  0  0  0  0  0  0  0  0  0
   -4.9319   -0.6115   -0.0234 C   0  0  0  0  0  0  0  0  0  0  0  0
   -4.2716    0.5227   -0.8052 C   0  0  0  0  0  0  0  0  0  0  0  0
   -3.6489    1.6173   -0.0406 C   0  0  0  0  0  0  0  0  0  0  0  0
   -3.5678    1.7806    1.3248 C   0  0  0  0  0  0  0  0  0  0  0  0
   -2.8826    2.9781    1.6807 C   0  0  0  0  0  0  0  0  0  0  0  0
   -2.4659    3.6842    0.5738 C   0  0  0  0  0  0  0  0  0  0  0  0
    5.1016    0.5463    0.9331 H   0  0  0  0  0  0  0  0  0  0  0  0
    5.2930   -0.3028   -0.5964 H   0  0  0  0  0  0  0  0  0  0  0  0
    3.1177   -0.5744   -2.1342 H   0  0  0  0  0  0  0  0  0  0  0  0
    1.5735   -0.0036   -1.6042 H   0  0  0  0  0  0  0  0  0  0  0  0
    4.4924    2.6358   -0.2845 H   0  0  0  0  0  0  0  0  0  0  0  0
    6.0153    1.9855   -0.8956 H   0  0  0  0  0  0  0  0  0  0  0  0
    2.6954    1.5086   -3.2055 H   0  0  0  0  0  0  0  0  0  0  0  0
    2.5261    2.4116   -1.7182 H   0  0  0  0  0  0  0  0  0  0  0  0
    1.0049    1.4923   -0.6468 H   0  0  0  0  0  0  0  0  0  0  0  0
    1.3158   -2.6286   -1.6063 H   0  0  0  0  0  0  0  0  0  0  0  0
    0.9594   -1.1931    2.4552 H   0  0  0  0  0  0  0  0  0  0  0  0
   -1.0701   -3.0304   -1.6816 H   0  0  0  0  0  0  0  0  0  0  0  0
   -1.4615   -1.5756    2.3691 H   0  0  0  0  0  0  0  0  0  0  0  0
   -0.2259    2.1099    0.9153 H   0  0  0  0  0  0  0  0  0  0  0  0
   -3.4240   -3.3793   -1.4617 H   0  0  0  0  0  0  0  0  0  0  0  0
   -2.9128   -1.6813   -1.6215 H   0  0  0  0  0  0  0  0  0  0  0  0
   -5.3906   -2.6970   -0.1516 H   0  0  0  0  0  0  0  0  0  0  0  0
   -5.3749   -1.8867   -1.7226 H   0  0  0  0  0  0  0  0  0  0  0  0
   -4.4699   -0.7260    0.9605 H   0  0  0  0  0  0  0  0  0  0  0  0
   -5.9797   -0.3316    0.1351 H   0  0  0  0  0  0  0  0  0  0  0  0
   -3.9761    1.0948    2.0550 H   0  0  0  0  0  0  0  0  0  0  0  0
   -2.7044    3.3052    2.6968 H   0  0  0  0  0  0  0  0  0  0  0  0
   -1.9261    4.6203    0.5532 H   0  0  0  0  0  0  0  0  0  0  0  0
  1  4  2  0  0  0  0
  1  5  2  0  0  0  0
  1 11  1  0  0  0  0
  1 17  1  0  0  0  0
  2 27  1  0  0  0  0
  2 30  1  0  0  0  0
  3 14  1  0  0  0  0
  3 15  1  0  0  0  0
  6 16  2  0  0  0  0
  7 10  1  0  0  0  0
  7 44  1  0  0  0  0
  8 22  1  0  0  0  0
  8 23  1  0  0  0  0
  9 26  2  0  0  0  0
 10 16  1  0  0  0  0
 10 39  1  0  0  0  0
 11 12  1  0  0  0  0
 11 13  1  0  0  0  0
 11 16  1  0  0  0  0
 12 14  1  0  0  0  0
 12 31  1  0  0  0  0
 12 32  1  0  0  0  0
 13 15  1  0  0  0  0
 13 33  1  0  0  0  0
 13 34  1  0  0  0  0
 14 35  1  0  0  0  0
 14 36  1  0  0  0  0
 15 37  1  0  0  0  0
 15 38  1  0  0  0  0
 17 18  2  0  0  0  0
 17 19  1  0  0  0  0
 18 20  1  0  0  0  0
 18 40  1  0  0  0  0
 19 21  2  0  0  0  0
 19 41  1  0  0  0  0
 20 22  2  0  0  0  0
 20 42  1  0  0  0  0
 21 22  1  0  0  0  0
 21 43  1  0  0  0  0
 23 24  1  0  0  0  0
 23 45  1  0  0  0  0
 23 46  1  0  0  0  0
 24 25  1  0  0  0  0
 24 47  1  0  0  0  0
 24 48  1  0  0  0  0
 25 26  1  0  0  0  0
 25 49  1  0  0  0  0
 25 50  1  0  0  0  0
 26 27  1  0  0  0  0
 27 28  2  0  0  0  0
 28 29  1  0  0  0  0
 28 51  1  0  0  0  0
 29 30  2  0  0  0  0
 29 52  1  0  0  0  0
 30 53  1  0  0  0  0
M  END
> <PUBCHEM_COMPOUND_CID>
10115040

> <PUBCHEM_CONFORMER_RMSD>
1.2

> <PUBCHEM_CONFORMER_DIVERSEORDER>
1
142
47
138
103
63
146
66
79
57
100
59
108
48
68
129
101
58
99
141
10
27
7
11
86
85
111
112
113
136
114
52
43
128
65
118
54
70
82
21
33
120
93
46
109
49
71
62
8
139
87
36
45
91
140
26
50
133
53
31
76
78
94
55
28
117
35
38
34
107
104
3
29
16
95
122
51
24
37
148
40
12
69
110
17
132
19
126
125
124
39
13
18
121
42
74
98
134
9
143
130
30
81
15
144
32
137
106
97
5
2
22
56
84
90
75
44
73
102
14
72
115
60
96
6
88
105
61
67
4
20
123
119
145
92
83
127
89
131
41
147
64
77
116
80
23
25
135

> <PUBCHEM_MMFF94_PARTIAL_CHARGES>
36
1 1.2
10 -0.39
11 0.17
14 0.28
15 0.28
16 0.57
17 -0.01
18 -0.15
19 -0.15
2 -0.08
20 -0.15
21 -0.15
22 0.08
23 0.28
25 0.06
26 0.59
27 -0.05
28 -0.15
29 -0.15
3 -0.56
30 -0.11
39 0.37
4 -0.65
40 0.15
41 0.15
42 0.15
43 0.15
44 0.4
5 -0.65
51 0.15
52 0.15
53 0.15
6 -0.57
7 -0.44
8 -0.36
9 -0.57

> <PUBCHEM_EFFECTIVE_ROTOR_COUNT>
11.2

> <PUBCHEM_PHARMACOPHORE_FEATURES>
10
1 10 donor
1 3 acceptor
1 4 acceptor
1 5 acceptor
1 6 acceptor
1 8 acceptor
1 9 acceptor
5 2 27 28 29 30 rings
6 17 18 19 20 21 22 rings
6 3 11 12 13 14 15 rings

> <PUBCHEM_HEAVY_ATOM_COUNT>
30

> <PUBCHEM_ATOM_DEF_STEREO_COUNT>
0

> <PUBCHEM_ATOM_UDEF_STEREO_COUNT>
0

> <PUBCHEM_BOND_DEF_STEREO_COUNT>
0

> <PUBCHEM_BOND_UDEF_STEREO_COUNT>
0

> <PUBCHEM_ISOTOPIC_ATOM_COUNT>
0

> <PUBCHEM_COMPONENT_COUNT>
1

> <PUBCHEM_CACTVS_TAUTO_COUNT>
6

> <PUBCHEM_CONFORMER_ID>
009A57E000000001

> <PUBCHEM_MMFF94_ENERGY>
75.3532

> <PUBCHEM_FEATURE_SELFOVERLAP>
50.773

> <PUBCHEM_SHAPE_FINGERPRINT>
10577160 103 17841460286675938404
10670039 82 18411145752931226996
11513181 2 18272097041174410174
12422481 6 18116976812047684490
12596602 18 16588583235794736715
12788726 201 18412546548004042747
12978246 48 18267021644472443961
13122387 1 18341608153908825769
14117953 113 16897071744273346709
14251751 93 18270391673370402795
14251757 17 17131841927720166021
14251764 38 18336270050266691847
14363568 33 17399254421769123897
14840074 17 18337966623443739153
14931854 50 18410851079794471949
15274700 256 18270676602472173136
16067690 210 15720487920777183013
17818456 19 18339912723821398674
19930381 70 16899319734752168799
20764821 26 18123476247853317981
22749437 52 18338227147031578053
22907989 373 18265635327591912249
235170 7 17274830176649453711
3052486 1 18336822104347304952
3493558 16 17606129612819529238
35225 105 18337944696976316909
463206 1 18268707204345879561
469060 322 17824000007259862857
474 4 17821723974544932451
5048184 11 18196376922871089137
5895379 119 18342455885779061946
6287921 2 18052548673006793695
6700243 42 17629785597286707543

> <PUBCHEM_SHAPE_MULTIPOLES>
579.02
10.62
4.34
1.86
0.66
0.91
0.08
2.71
3.09
2.91
-0.32
-0.68
0.61
-2.05

> <PUBCHEM_SHAPE_SELFOVERLAP>
1205.584

> <PUBCHEM_SHAPE_VOLUME>
328.5

> <PUBCHEM_COORDINATE_TYPE>
2
5
10

$$$$
