120569
  -OEChem-02172602463D

 38 39  0     0  0  0  0  0  0999 V2000
    1.6831    2.1240    0.1752 S   0  0  0  0  0  0  0  0  0  0  0  0
   -5.2396   -1.5923   -0.1803 O   0  0  0  0  0  0  0  0  0  0  0  0
    1.4453    2.4408    1.5705 O   0  0  0  0  0  0  0  0  0  0  0  0
    2.4889    3.0068   -0.6464 O   0  0  0  0  0  0  0  0  0  0  0  0
   -3.1292    0.2951    0.1121 N   0  0  0  0  0  0  0  0  0  0  0  0
    0.1966    1.8524   -0.6030 N   0  0  0  0  0  0  0  0  0  0  0  0
    4.1991   -3.2575   -0.0791 N   0  0  0  0  0  0  0  0  0  0  0  0
   -2.1727    1.2623   -0.4220 C   0  0  0  0  0  0  0  0  0  0  0  0
   -2.8931   -1.0399   -0.4553 C   0  0  0  0  0  0  0  0  0  0  0  0
   -4.5090    0.7210   -0.1602 C   0  0  0  0  0  0  0  0  0  0  0  0
   -3.9104   -2.0289    0.1066 C   0  0  0  0  0  0  0  0  0  0  0  0
   -5.4878   -0.3094    0.3958 C   0  0  0  0  0  0  0  0  0  0  0  0
   -0.7521    0.8574   -0.0559 C   0  0  0  0  0  0  0  0  0  0  0  0
    2.4310    0.5241    0.0992 C   0  0  0  0  0  0  0  0  0  0  0  0
    3.2199    0.1977   -0.9902 C   0  0  0  0  0  0  0  0  0  0  0  0
    2.2138   -0.3727    1.1309 C   0  0  0  0  0  0  0  0  0  0  0  0
    3.8101   -1.0648   -1.0499 C   0  0  0  0  0  0  0  0  0  0  0  0
    2.8041   -1.6351    1.0713 C   0  0  0  0  0  0  0  0  0  0  0  0
    3.6021   -1.9812   -0.0191 C   0  0  0  0  0  0  0  0  0  0  0  0
   -2.2695    1.3604   -1.5117 H   0  0  0  0  0  0  0  0  0  0  0  0
   -2.3731    2.2544    0.0032 H   0  0  0  0  0  0  0  0  0  0  0  0
   -2.9726   -1.0126   -1.5497 H   0  0  0  0  0  0  0  0  0  0  0  0
   -1.9114   -1.4391   -0.1882 H   0  0  0  0  0  0  0  0  0  0  0  0
   -4.7085    1.6904    0.3108 H   0  0  0  0  0  0  0  0  0  0  0  0
   -4.6678    0.8285   -1.2412 H   0  0  0  0  0  0  0  0  0  0  0  0
   -0.6511    0.7922    1.0325 H   0  0  0  0  0  0  0  0  0  0  0  0
   -0.4629   -0.0975   -0.5016 H   0  0  0  0  0  0  0  0  0  0  0  0
   -3.7753   -3.0096   -0.3609 H   0  0  0  0  0  0  0  0  0  0  0  0
   -3.7939   -2.1591    1.1896 H   0  0  0  0  0  0  0  0  0  0  0  0
   -5.4240   -0.3800    1.4885 H   0  0  0  0  0  0  0  0  0  0  0  0
   -6.5136   -0.0236    0.1419 H   0  0  0  0  0  0  0  0  0  0  0  0
    0.1450    2.0039   -1.6183 H   0  0  0  0  0  0  0  0  0  0  0  0
    3.3875    0.8936   -1.8064 H   0  0  0  0  0  0  0  0  0  0  0  0
    1.5936   -0.1238    1.9864 H   0  0  0  0  0  0  0  0  0  0  0  0
    4.4285   -1.3232   -1.9057 H   0  0  0  0  0  0  0  0  0  0  0  0
    2.6337   -2.3408    1.8804 H   0  0  0  0  0  0  0  0  0  0  0  0
    4.7771   -3.5093   -0.8699 H   0  0  0  0  0  0  0  0  0  0  0  0
    4.0479   -3.9227    0.6674 H   0  0  0  0  0  0  0  0  0  0  0  0
  1  3  2  0  0  0  0
  1  4  2  0  0  0  0
  1  6  1  0  0  0  0
  1 14  1  0  0  0  0
  2 11  1  0  0  0  0
  2 12  1  0  0  0  0
  5  8  1  0  0  0  0
  5  9  1  0  0  0  0
  5 10  1  0  0  0  0
  6 13  1  0  0  0  0
  6 32  1  0  0  0  0
  7 19  1  0  0  0  0
  7 37  1  0  0  0  0
  7 38  1  0  0  0  0
  8 13  1  0  0  0  0
  8 20  1  0  0  0  0
  8 21  1  0  0  0  0
  9 11  1  0  0  0  0
  9 22  1  0  0  0  0
  9 23  1  0  0  0  0
 10 12  1  0  0  0  0
 10 24  1  0  0  0  0
 10 25  1  0  0  0  0
 11 28  1  0  0  0  0
 11 29  1  0  0  0  0
 12 30  1  0  0  0  0
 12 31  1  0  0  0  0
 13 26  1  0  0  0  0
 13 27  1  0  0  0  0
 14 15  2  0  0  0  0
 14 16  1  0  0  0  0
 15 17  1  0  0  0  0
 15 33  1  0  0  0  0
 16 18  2  0  0  0  0
 16 34  1  0  0  0  0
 17 19  2  0  0  0  0
 17 35  1  0  0  0  0
 18 19  1  0  0  0  0
 18 36  1  0  0  0  0
M  END
> <PUBCHEM_COMPOUND_CID>
120569

> <PUBCHEM_CONFORMER_RMSD>
0.8

> <PUBCHEM_CONFORMER_DIVERSEORDER>
1
14
21
11
2
25
24
17
22
3
4
9
28
29
7
19
13
5
18
15
12
20
27
16
23
8
10
26
6

> <PUBCHEM_MMFF94_PARTIAL_CHARGES>
26
1 1.45
10 0.27
11 0.28
12 0.28
13 0.36
14 -0.01
15 -0.15
16 -0.15
17 -0.15
18 -0.15
19 0.1
2 -0.56
3 -0.65
32 0.42
33 0.15
34 0.15
35 0.15
36 0.15
37 0.4
38 0.4
4 -0.65
5 -0.81
6 -0.91
7 -0.9
8 0.27
9 0.27

> <PUBCHEM_EFFECTIVE_ROTOR_COUNT>
6.2

> <PUBCHEM_PHARMACOPHORE_FEATURES>
9
1 2 acceptor
1 3 acceptor
1 4 acceptor
1 5 cation
1 6 donor
1 7 cation
1 7 donor
6 14 15 16 17 18 19 rings
6 2 5 9 10 11 12 rings

> <PUBCHEM_HEAVY_ATOM_COUNT>
19

> <PUBCHEM_ATOM_DEF_STEREO_COUNT>
0

> <PUBCHEM_ATOM_UDEF_STEREO_COUNT>
0

> <PUBCHEM_BOND_DEF_STEREO_COUNT>
0

> <PUBCHEM_BOND_UDEF_STEREO_COUNT>
0

> <PUBCHEM_ISOTOPIC_ATOM_COUNT>
0

> <PUBCHEM_COMPONENT_COUNT>
1

> <PUBCHEM_CACTVS_TAUTO_COUNT>
1

> <PUBCHEM_CONFORMER_ID>
0001D6F900000001

> <PUBCHEM_MMFF94_ENERGY>
34.723

> <PUBCHEM_FEATURE_SELFOVERLAP>
45.689

> <PUBCHEM_SHAPE_FINGERPRINT>
10498660 4 8069733130997026086
11405975 8 18342178869395343937
12107183 9 18125450717882243017
12553582 1 18336818697921053551
12633257 1 18200886080291155057
13167823 11 18411702132022495917
13255334 9 18336549425447837539
13464513 79 18413390943091001694
13533116 47 18270398412532961691
13551218 46 18410578431508648163
13955234 65 18269276935688703400
13965767 371 11671772729185583426
14251731 5 18336827489814054014
14251740 57 18340769359654685359
14251764 30 17702959015485900326
14576447 43 18335990779278201510
14866123 147 17908706125186632217
15239191 94 18408602565456564237
15352361 1 18338516335406010190
15536298 74 18338513153204138801
17492 89 18338234972573384779
17818456 19 18200884980933086489
18915474 69 18260834765272451814
20281475 54 18409732828818395821
20291156 8 18410009905621637501
20388580 30 18410016507424507292
20403669 9 18341335500605225671
20645477 70 18336263539280958829
21713013 43 17822570491176340022
221490 88 18335145331454795554
2215653 11 18408877426695303399
2255824 54 18263363745195888924
23379529 103 18125165922790668094
235170 7 15430036543774656227
23559900 14 18410004451504178221
239999 70 18341619264952245556
3004659 81 18114464453278800454
314173 41 18410859824004968694
3421961 26 18412823590553573736
465052 167 18341337734067243423
5104073 3 18272376412513288267
7970288 3 18194119616698788574
88748 71 18262803960417164763
94968 8 18334576837009707844
960060 61 17967256398922683839
9709674 26 18261956374781135963

> <PUBCHEM_SHAPE_MULTIPOLES>
362.31
11.14
3.14
1.02
12.94
0.11
-0.17
-7.14
0.65
-3.03
-0.11
-0.83
0.15
0.04

> <PUBCHEM_SHAPE_SELFOVERLAP>
730.964

> <PUBCHEM_SHAPE_VOLUME>
212.6

> <PUBCHEM_COORDINATE_TYPE>
2
5
10

$$$$
