160273
  -OEChem-03052615033D

 50 53  0     1  0  0  0  0  0999 V2000
    3.8996   -2.5189    1.0302 Cl  0  0  0  0  0  0  0  0  0  0  0  0
   -0.0475   -5.7725   -0.6061 Cl  0  0  0  0  0  0  0  0  0  0  0  0
   -2.5188   -1.6392    0.6426 O   0  0  0  0  0  0  0  0  0  0  0  0
   -3.6813    0.8530    1.3473 N   0  0  0  0  0  0  0  0  0  0  0  0
    1.9766   -0.3002    0.4272 N   0  0  0  0  0  0  0  0  0  0  0  0
   -0.7403   -0.5979   -0.5910 C   0  0  1  0  0  0  0  0  0  0  0  0
   -1.7772   -0.4329    0.5239 C   0  0  1  0  0  0  0  0  0  0  0  0
   -2.7282    0.7278    0.2373 C   0  0  1  0  0  0  0  0  0  0  0  0
    0.0887    0.6808   -0.8005 C   0  0  0  0  0  0  0  0  0  0  0  0
   -3.4653    0.5045   -1.0903 C   0  0  0  0  0  0  0  0  0  0  0  0
    1.1213    0.8744    0.3209 C   0  0  2  0  0  0  0  0  0  0  0  0
    0.1705   -1.7775   -0.3097 C   0  0  0  0  0  0  0  0  0  0  0  0
   -4.4783    1.6154   -1.3536 C   0  0  0  0  0  0  0  0  0  0  0  0
   -5.4054    1.7892   -0.1556 C   0  0  0  0  0  0  0  0  0  0  0  0
   -4.6119    1.9622    1.1373 C   0  0  0  0  0  0  0  0  0  0  0  0
    1.4683   -1.5746    0.2022 C   0  0  0  0  0  0  0  0  0  0  0  0
    1.9603    2.1168    0.0913 C   0  0  0  0  0  0  0  0  0  0  0  0
   -0.2901   -3.0822   -0.5511 C   0  0  0  0  0  0  0  0  0  0  0  0
    2.2843   -2.6937    0.4296 C   0  0  0  0  0  0  0  0  0  0  0  0
    0.5307   -4.1803   -0.3039 C   0  0  0  0  0  0  0  0  0  0  0  0
    1.8186   -3.9861    0.1836 C   0  0  0  0  0  0  0  0  0  0  0  0
    3.1450    2.0309   -0.6382 C   0  0  0  0  0  0  0  0  0  0  0  0
    1.5449    3.3423    0.6096 C   0  0  0  0  0  0  0  0  0  0  0  0
    3.9166    3.1735   -0.8496 C   0  0  0  0  0  0  0  0  0  0  0  0
    2.3165    4.4849    0.3981 C   0  0  0  0  0  0  0  0  0  0  0  0
    3.5024    4.4004   -0.3315 C   0  0  0  0  0  0  0  0  0  0  0  0
   -1.2331   -0.8368   -1.5413 H   0  0  0  0  0  0  0  0  0  0  0  0
   -1.2750   -0.2792    1.4873 H   0  0  0  0  0  0  0  0  0  0  0  0
   -2.1736    1.6706    0.1969 H   0  0  0  0  0  0  0  0  0  0  0  0
    0.6308    0.5700   -1.7530 H   0  0  0  0  0  0  0  0  0  0  0  0
   -0.5226    1.5756   -0.9421 H   0  0  0  0  0  0  0  0  0  0  0  0
   -3.9894   -0.4596   -1.0916 H   0  0  0  0  0  0  0  0  0  0  0  0
   -2.7740    0.4993   -1.9383 H   0  0  0  0  0  0  0  0  0  0  0  0
    0.6053    0.9912    1.2821 H   0  0  0  0  0  0  0  0  0  0  0  0
   -5.0633    1.3868   -2.2513 H   0  0  0  0  0  0  0  0  0  0  0  0
   -3.9482    2.5565   -1.5453 H   0  0  0  0  0  0  0  0  0  0  0  0
   -3.1735    1.0006    2.2192 H   0  0  0  0  0  0  0  0  0  0  0  0
   -6.0541    2.6584   -0.3123 H   0  0  0  0  0  0  0  0  0  0  0  0
   -6.0598    0.9123   -0.0708 H   0  0  0  0  0  0  0  0  0  0  0  0
   -4.0679    2.9146    1.1251 H   0  0  0  0  0  0  0  0  0  0  0  0
   -5.3085    2.0035    1.9818 H   0  0  0  0  0  0  0  0  0  0  0  0
    2.8507   -0.2278    0.9370 H   0  0  0  0  0  0  0  0  0  0  0  0
   -3.1802   -1.5089    1.3435 H   0  0  0  0  0  0  0  0  0  0  0  0
   -1.2877   -3.2387   -0.9560 H   0  0  0  0  0  0  0  0  0  0  0  0
    2.4621   -4.8432    0.3714 H   0  0  0  0  0  0  0  0  0  0  0  0
    3.4853    1.0942   -1.0706 H   0  0  0  0  0  0  0  0  0  0  0  0
    0.6216    3.4209    1.1772 H   0  0  0  0  0  0  0  0  0  0  0  0
    4.8378    3.1089   -1.4214 H   0  0  0  0  0  0  0  0  0  0  0  0
    1.9935    5.4405    0.8005 H   0  0  0  0  0  0  0  0  0  0  0  0
    4.1025    5.2904   -0.4974 H   0  0  0  0  0  0  0  0  0  0  0  0
  1 19  1  0  0  0  0
  2 20  1  0  0  0  0
  3  7  1  0  0  0  0
  3 43  1  0  0  0  0
  4  8  1  0  0  0  0
  4 15  1  0  0  0  0
  4 37  1  0  0  0  0
  5 11  1  0  0  0  0
  5 16  1  0  0  0  0
  5 42  1  0  0  0  0
  6  7  1  0  0  0  0
  6  9  1  0  0  0  0
  6 12  1  0  0  0  0
  6 27  1  0  0  0  0
  7  8  1  0  0  0  0
  7 28  1  0  0  0  0
  8 10  1  0  0  0  0
  8 29  1  0  0  0  0
  9 11  1  0  0  0  0
  9 30  1  0  0  0  0
  9 31  1  0  0  0  0
 10 13  1  0  0  0  0
 10 32  1  0  0  0  0
 10 33  1  0  0  0  0
 11 17  1  0  0  0  0
 11 34  1  0  0  0  0
 12 16  2  0  0  0  0
 12 18  1  0  0  0  0
 13 14  1  0  0  0  0
 13 35  1  0  0  0  0
 13 36  1  0  0  0  0
 14 15  1  0  0  0  0
 14 38  1  0  0  0  0
 14 39  1  0  0  0  0
 15 40  1  0  0  0  0
 15 41  1  0  0  0  0
 16 19  1  0  0  0  0
 17 22  2  0  0  0  0
 17 23  1  0  0  0  0
 18 20  2  0  0  0  0
 18 44  1  0  0  0  0
 19 21  2  0  0  0  0
 20 21  1  0  0  0  0
 21 45  1  0  0  0  0
 22 24  1  0  0  0  0
 22 46  1  0  0  0  0
 23 25  2  0  0  0  0
 23 47  1  0  0  0  0
 24 26  2  0  0  0  0
 24 48  1  0  0  0  0
 25 26  1  0  0  0  0
 25 49  1  0  0  0  0
 26 50  1  0  0  0  0
M  END
> <PUBCHEM_COMPOUND_CID>
160273

> <PUBCHEM_CONFORMER_RMSD>
0.8

> <PUBCHEM_CONFORMER_DIVERSEORDER>
1
18
33
29
28
21
26
22
34
23
9
7
38
16
14
32
2
5
36
15
12
19
17
31
25
27
11
24
30
3
37
13
10
8
20
4
35
6

> <PUBCHEM_MMFF94_PARTIAL_CHARGES>
32
1 -0.18
11 0.51
12 -0.14
15 0.27
16 0.1
17 -0.14
18 -0.15
19 0.18
2 -0.18
20 0.18
21 -0.15
22 -0.15
23 -0.15
24 -0.15
25 -0.15
26 -0.15
3 -0.68
37 0.36
4 -0.9
42 0.4
43 0.4
44 0.15
45 0.15
46 0.15
47 0.15
48 0.15
49 0.15
5 -0.87
50 0.15
6 0.14
7 0.28
8 0.27

> <PUBCHEM_EFFECTIVE_ROTOR_COUNT>
5

> <PUBCHEM_PHARMACOPHORE_FEATURES>
10
1 3 acceptor
1 3 donor
1 4 cation
1 4 donor
1 5 cation
1 5 donor
6 12 16 18 19 20 21 rings
6 17 22 23 24 25 26 rings
6 4 8 10 13 14 15 rings
6 5 6 9 11 12 16 rings

> <PUBCHEM_HEAVY_ATOM_COUNT>
26

> <PUBCHEM_ATOM_DEF_STEREO_COUNT>
0

> <PUBCHEM_ATOM_UDEF_STEREO_COUNT>
4

> <PUBCHEM_BOND_DEF_STEREO_COUNT>
0

> <PUBCHEM_BOND_UDEF_STEREO_COUNT>
0

> <PUBCHEM_ISOTOPIC_ATOM_COUNT>
0

> <PUBCHEM_COMPONENT_COUNT>
1

> <PUBCHEM_CACTVS_TAUTO_COUNT>
1

> <PUBCHEM_CONFORMER_ID>
0002721100000001

> <PUBCHEM_MMFF94_ENERGY>
67.2884

> <PUBCHEM_FEATURE_SELFOVERLAP>
50.774

> <PUBCHEM_SHAPE_FINGERPRINT>
10006869 2 17978791534287626803
10411042 1 17690001137602792775
10670039 82 16535115342473088932
10937287 8 18266458891581323717
1100329 8 18410855503969339394
12107183 9 18119790638539994336
12173636 292 17833548273150988820
12553582 1 18051137990471284806
12788726 201 17469324738423514786
12930653 34 18191313877882909979
13004483 165 17402881238140763859
13134695 92 18049722915169903343
13140716 1 18408326583648294131
13590594 115 17402338075323689241
13617811 41 18122632648380099982
13690498 29 17261620859372150756
138480 1 18122627154224897033
13911987 19 18192165814969884214
140371 6 18121505643816653898
14790565 3 18410298029804367028
14955137 171 18266469710941552434
15042514 8 17329436553885597978
15081414 286 18050854312445253267
15230672 131 18189905382931355852
15664445 248 18054807087102127502
15927050 60 18266745869217840006
16988056 13 17902772086459210597
1813 80 17625825963856887055
18785283 64 18335987480263179161
19591789 44 18265621059820980388
20510252 161 17331115512789321368
20642791 178 18409727370257555378
20739085 24 18267858385679462922
21033648 29 18124875913445174753
21120745 212 17331139199813560222
21641784 216 17690580584784048582
22033318 11 17122576172410633785
2255824 54 18341049614591242959
23557571 272 16898778783589491900
23558518 356 18198325433163278062
23559900 14 18338507535413270035
23845131 108 18336834216302539067
23929065 36 17334477793878593512
24771293 8 18128800981425231546
266924 87 17762611098900330550
283562 15 17472411531619102874
3091708 16 8971169903681900361
3380486 145 17834374745117758671
350125 39 18265900335437221667
3886686 26 17837452562106668568
474 4 18413103944839446553
59025328 239 17262106435083026567
6004065 56 18192980540158634287
6443956 14 17976538308607017895
7399639 24 18118421741988123899
77188 2 17834118541559507023
81228 2 17254561500235579826
9981440 41 18266170811472244793

> <PUBCHEM_SHAPE_MULTIPOLES>
522.98
8.07
7.81
1.07
12.89
0.34
0.01
-3.76
0.65
-10.91
-1.07
0.6
-0.13
-0.89

> <PUBCHEM_SHAPE_SELFOVERLAP>
1109.476

> <PUBCHEM_SHAPE_VOLUME>
292.5

> <PUBCHEM_COORDINATE_TYPE>
2
5
10

$$$$
