160350
  -OEChem-03052615043D

 34 39  0     0  0  0  0  0  0999 V2000
   -1.3549    0.5514   -0.0007 C   0  0  0  0  0  0  0  0  0  0  0  0
    0.0532    0.5537   -0.0009 C   0  0  0  0  0  0  0  0  0  0  0  0
   -1.9957   -0.6769   -0.0008 C   0  0  0  0  0  0  0  0  0  0  0  0
    0.7827   -0.6796   -0.0010 C   0  0  0  0  0  0  0  0  0  0  0  0
   -1.3577   -1.8788   -0.0007 C   0  0  0  0  0  0  0  0  0  0  0  0
    0.6893    1.8057   -0.0005 C   0  0  0  0  0  0  0  0  0  0  0  0
   -2.1589    1.7015    0.0001 C   0  0  0  0  0  0  0  0  0  0  0  0
   -3.3502   -0.8567    0.0003 C   0  0  0  0  0  0  0  0  0  0  0  0
    0.0290   -1.9013   -0.0009 C   0  0  0  0  0  0  0  0  0  0  0  0
    2.2155   -0.6095   -0.0006 C   0  0  0  0  0  0  0  0  0  0  0  0
    2.8507    0.6627   -0.0001 C   0  0  0  0  0  0  0  0  0  0  0  0
    2.0866    1.8396   -0.0003 C   0  0  0  0  0  0  0  0  0  0  0  0
   -2.3883   -2.9089    0.0003 C   0  0  0  0  0  0  0  0  0  0  0  0
   -0.0912    2.9830   -0.0001 C   0  0  0  0  0  0  0  0  0  0  0  0
   -1.4938    2.9342    0.0003 C   0  0  0  0  0  0  0  0  0  0  0  0
   -3.5869   -2.2941    0.0010 C   0  0  0  0  0  0  0  0  0  0  0  0
   -3.5737    1.5354    0.0008 C   0  0  0  0  0  0  0  0  0  0  0  0
   -4.1711    0.2558    0.0011 C   0  0  0  0  0  0  0  0  0  0  0  0
    3.0600   -1.7470   -0.0002 C   0  0  0  0  0  0  0  0  0  0  0  0
    4.2529    0.7546    0.0008 C   0  0  0  0  0  0  0  0  0  0  0  0
    4.4530   -1.6378    0.0008 C   0  0  0  0  0  0  0  0  0  0  0  0
    5.0494   -0.3868    0.0014 C   0  0  0  0  0  0  0  0  0  0  0  0
    0.5249   -2.8675   -0.0007 H   0  0  0  0  0  0  0  0  0  0  0  0
    2.5913    2.8062    0.0001 H   0  0  0  0  0  0  0  0  0  0  0  0
   -2.1995   -3.9695    0.0006 H   0  0  0  0  0  0  0  0  0  0  0  0
    0.3927    3.9583    0.0002 H   0  0  0  0  0  0  0  0  0  0  0  0
   -2.0561    3.8648    0.0008 H   0  0  0  0  0  0  0  0  0  0  0  0
   -4.5585   -2.7591    0.0020 H   0  0  0  0  0  0  0  0  0  0  0  0
   -4.2191    2.4121    0.0015 H   0  0  0  0  0  0  0  0  0  0  0  0
   -5.2517    0.1589    0.0022 H   0  0  0  0  0  0  0  0  0  0  0  0
    2.6484   -2.7530   -0.0006 H   0  0  0  0  0  0  0  0  0  0  0  0
    4.7432    1.7266    0.0012 H   0  0  0  0  0  0  0  0  0  0  0  0
    5.0666   -2.5339    0.0011 H   0  0  0  0  0  0  0  0  0  0  0  0
    6.1315   -0.2966    0.0022 H   0  0  0  0  0  0  0  0  0  0  0  0
  1  2  1  0  0  0  0
  1  3  1  0  0  0  0
  1  7  2  0  0  0  0
  2  4  2  0  0  0  0
  2  6  1  0  0  0  0
  3  5  1  0  0  0  0
  3  8  2  0  0  0  0
  4  9  1  0  0  0  0
  4 10  1  0  0  0  0
  5  9  2  0  0  0  0
  5 13  1  0  0  0  0
  6 12  2  0  0  0  0
  6 14  1  0  0  0  0
  7 15  1  0  0  0  0
  7 17  1  0  0  0  0
  8 16  1  0  0  0  0
  8 18  1  0  0  0  0
  9 23  1  0  0  0  0
 10 11  1  0  0  0  0
 10 19  2  0  0  0  0
 11 12  1  0  0  0  0
 11 20  2  0  0  0  0
 12 24  1  0  0  0  0
 13 16  2  0  0  0  0
 13 25  1  0  0  0  0
 14 15  2  0  0  0  0
 14 26  1  0  0  0  0
 15 27  1  0  0  0  0
 16 28  1  0  0  0  0
 17 18  2  0  0  0  0
 17 29  1  0  0  0  0
 18 30  1  0  0  0  0
 19 21  1  0  0  0  0
 19 31  1  0  0  0  0
 20 22  1  0  0  0  0
 20 32  1  0  0  0  0
 21 22  2  0  0  0  0
 21 33  1  0  0  0  0
 22 34  1  0  0  0  0
M  END
> <PUBCHEM_COMPOUND_CID>
160350

> <PUBCHEM_CONFORMER_RMSD>
0.6

> <PUBCHEM_CONFORMER_DIVERSEORDER>
1

> <PUBCHEM_MMFF94_PARTIAL_CHARGES>
26
12 -0.15
13 -0.18
14 -0.15
15 -0.15
16 -0.18
17 -0.15
18 -0.15
19 -0.15
20 -0.15
21 -0.15
22 -0.15
23 0.15
24 0.15
25 0.15
26 0.15
27 0.15
28 0.15
29 0.15
30 0.15
31 0.15
32 0.15
33 0.15
34 0.15
5 0.03
8 0.03
9 -0.15

> <PUBCHEM_EFFECTIVE_ROTOR_COUNT>
0

> <PUBCHEM_PHARMACOPHORE_FEATURES>
6
5 3 5 8 13 16 rings
6 1 2 3 4 5 9 rings
6 1 2 6 7 14 15 rings
6 1 3 7 8 17 18 rings
6 10 11 19 20 21 22 rings
6 2 4 6 10 11 12 rings

> <PUBCHEM_HEAVY_ATOM_COUNT>
22

> <PUBCHEM_ATOM_DEF_STEREO_COUNT>
0

> <PUBCHEM_ATOM_UDEF_STEREO_COUNT>
0

> <PUBCHEM_BOND_DEF_STEREO_COUNT>
0

> <PUBCHEM_BOND_UDEF_STEREO_COUNT>
0

> <PUBCHEM_ISOTOPIC_ATOM_COUNT>
0

> <PUBCHEM_COMPONENT_COUNT>
1

> <PUBCHEM_CACTVS_TAUTO_COUNT>
1

> <PUBCHEM_CONFORMER_ID>
0002725E00000001

> <PUBCHEM_MMFF94_ENERGY>
94.0727

> <PUBCHEM_FEATURE_SELFOVERLAP>
30.801

> <PUBCHEM_SHAPE_FINGERPRINT>
10319926 262 18196911329157476058
10411042 1 18266459995762556035
10493431 412 18126858092718433809
10616163 171 18411984663213398086
10693767 8 18057297610078450063
10906281 52 18271260317616257957
10967382 1 18410573946602279493
1100329 8 18411422804297864001
11578080 2 17201904037197657883
12011746 2 18410568449471532325
12236239 1 17749109968205412042
12403259 226 18340482386792541433
12403814 3 17603586288085118437
12553582 1 18338794640617683114
12838862 33 18265595637968175217
13140716 1 18411707612100156969
138480 1 15672667595467819529
14223421 5 18340481278759615848
14790565 3 18123758543322146313
15042514 8 18409733941320284187
15196674 1 18410855490224581380
15352361 1 18411135882880290862
15442244 35 18410856589725685658
15536298 74 18342174501107271816
16945 1 18338517426585763397
17492 89 18409449193748065554
17804303 29 18413110567156537128
19141452 34 18342460344044642939
19591789 44 17906173949448693978
20510252 161 18198904716829301112
20775438 99 16761645408609327031
20905425 154 18197223756866040957
21029758 11 18413382151103114005
21267235 1 18410019861451177923
21421861 104 17970060055127304106
221490 88 18191592062582414474
23184049 29 18411141376127475950
2334 1 18338799051859903695
23366157 5 17898004878960933676
23402539 116 18342449322789368047
23557571 272 18272658913723457566
23559900 14 18341608218560266504
238 59 16382792802685212781
2748010 2 18339636858271949261
3178227 256 18336561439146448865
335352 9 18410856534339569077
34934 24 18409442587749877186
350125 39 18410578349434881585
3882209 13 16974450408092968402
4214541 1 18410573963998517446
484989 97 18263356049490278967
5104073 3 18411980273904275074
54173680 148 18410294713498238104
7364860 26 17907859857150969129
8809292 202 18407762542583152091
9709674 26 18270966730768469238

> <PUBCHEM_SHAPE_MULTIPOLES>
452.75
8.15
3.34
0.62
5.67
0.55
0
-2.57
0
-1.82
0
0
0
0

> <PUBCHEM_SHAPE_SELFOVERLAP>
1091.668

> <PUBCHEM_SHAPE_VOLUME>
203.6

> <PUBCHEM_COORDINATE_TYPE>
2
5
10

$$$$
