161527
  -OEChem-03052615053D

 81 85  0     1  0  0  0  0  0999 V2000
    7.2676    0.9704    0.6999 O   0  0  0  0  0  0  0  0  0  0  0  0
   -4.5938   -2.8748   -0.2340 O   0  0  0  0  0  0  0  0  0  0  0  0
   -3.7764   -1.4677   -1.8302 O   0  0  0  0  0  0  0  0  0  0  0  0
    1.5408    0.5901   -0.0770 C   0  0  2  0  0  0  0  0  0  0  0  0
    3.0826    0.6462   -0.4611 C   0  0  2  0  0  0  0  0  0  0  0  0
    0.7983   -0.7561   -0.3759 C   0  0  2  0  0  0  0  0  0  0  0  0
    3.7870   -0.5483    0.2813 C   0  0  2  0  0  0  0  0  0  0  0  0
   -1.3723    0.6305    0.3654 C   0  0  2  0  0  0  0  0  0  0  0  0
   -0.6207   -0.7109    0.2680 C   0  0  0  0  0  0  0  0  0  0  0  0
   -2.9051    0.4324   -0.0154 C   0  0  1  0  0  0  0  0  0  0  0  0
    0.7495    1.8432   -0.5141 C   0  0  0  0  0  0  0  0  0  0  0  0
    1.6466   -1.9186    0.2263 C   0  0  0  0  0  0  0  0  0  0  0  0
    5.3612   -0.5406    0.2651 C   0  0  0  0  0  0  0  0  0  0  0  0
   -0.7613    1.6530   -0.6249 C   0  0  0  0  0  0  0  0  0  0  0  0
    3.1417   -1.8912   -0.1051 C   0  0  0  0  0  0  0  0  0  0  0  0
   -3.5613   -0.8848    0.5262 C   0  0  1  0  0  0  0  0  0  0  0  0
    3.6879    1.9762    0.0799 C   0  0  0  0  0  0  0  0  0  0  0  0
   -3.7758    1.6776    0.3033 C   0  0  0  0  0  0  0  0  0  0  0  0
    5.8474    0.8494    0.7730 C   0  0  2  0  0  0  0  0  0  0  0  0
    3.2821    0.6166   -1.9973 C   0  0  0  0  0  0  0  0  0  0  0  0
    0.5929   -1.0450   -1.8816 C   0  0  0  0  0  0  0  0  0  0  0  0
    5.2130    2.0306    0.0457 C   0  0  0  0  0  0  0  0  0  0  0  0
   -2.6039   -1.7686    1.3486 C   0  0  0  0  0  0  0  0  0  0  0  0
   -1.2275   -1.8068    0.7667 C   0  0  0  0  0  0  0  0  0  0  0  0
   -1.2243    1.1941    1.8035 C   0  0  0  0  0  0  0  0  0  0  0  0
   -5.2750    1.5116   -0.0364 C   0  0  0  0  0  0  0  0  0  0  0  0
   -4.8294   -0.6121    1.3593 C   0  0  0  0  0  0  0  0  0  0  0  0
   -5.8656    0.2469    0.6297 C   0  0  0  0  0  0  0  0  0  0  0  0
    5.9735   -0.8944   -1.1054 C   0  0  0  0  0  0  0  0  0  0  0  0
    5.9016   -1.6051    1.2600 C   0  0  0  0  0  0  0  0  0  0  0  0
   -3.9726   -1.7467   -0.6568 C   0  0  0  0  0  0  0  0  0  0  0  0
   -6.0296    2.7561    0.4764 C   0  0  0  0  0  0  0  0  0  0  0  0
   -5.4790    1.4470   -1.5633 C   0  0  0  0  0  0  0  0  0  0  0  0
    1.5494    0.6534    1.0229 H   0  0  0  0  0  0  0  0  0  0  0  0
    3.5347   -0.4128    1.3467 H   0  0  0  0  0  0  0  0  0  0  0  0
   -2.8942    0.3948   -1.1104 H   0  0  0  0  0  0  0  0  0  0  0  0
    1.1035    2.2425   -1.4689 H   0  0  0  0  0  0  0  0  0  0  0  0
    0.9403    2.6393    0.2183 H   0  0  0  0  0  0  0  0  0  0  0  0
    1.2573   -2.8898   -0.1061 H   0  0  0  0  0  0  0  0  0  0  0  0
    1.5533   -1.9052    1.3216 H   0  0  0  0  0  0  0  0  0  0  0  0
   -1.2268    2.6387   -0.5035 H   0  0  0  0  0  0  0  0  0  0  0  0
   -0.9981    1.3585   -1.6545 H   0  0  0  0  0  0  0  0  0  0  0  0
    3.6031   -2.7119    0.4536 H   0  0  0  0  0  0  0  0  0  0  0  0
    3.2980   -2.1274   -1.1607 H   0  0  0  0  0  0  0  0  0  0  0  0
    3.3681    2.1257    1.1199 H   0  0  0  0  0  0  0  0  0  0  0  0
    3.3010    2.8316   -0.4873 H   0  0  0  0  0  0  0  0  0  0  0  0
   -3.6926    1.9202    1.3697 H   0  0  0  0  0  0  0  0  0  0  0  0
   -3.3867    2.5507   -0.2337 H   0  0  0  0  0  0  0  0  0  0  0  0
    5.5885    0.9359    1.8372 H   0  0  0  0  0  0  0  0  0  0  0  0
    4.1744    1.1608   -2.3154 H   0  0  0  0  0  0  0  0  0  0  0  0
    3.3827   -0.3938   -2.3958 H   0  0  0  0  0  0  0  0  0  0  0  0
    2.4574    1.0895   -2.5358 H   0  0  0  0  0  0  0  0  0  0  0  0
   -0.1643   -1.8244   -2.0354 H   0  0  0  0  0  0  0  0  0  0  0  0
    0.2683   -0.1676   -2.4450 H   0  0  0  0  0  0  0  0  0  0  0  0
    1.4983   -1.4171   -2.3649 H   0  0  0  0  0  0  0  0  0  0  0  0
    5.5890    2.0906   -0.9813 H   0  0  0  0  0  0  0  0  0  0  0  0
    5.5465    2.9649    0.5160 H   0  0  0  0  0  0  0  0  0  0  0  0
   -2.9640   -2.8006    1.4405 H   0  0  0  0  0  0  0  0  0  0  0  0
   -2.5293   -1.4130    2.3835 H   0  0  0  0  0  0  0  0  0  0  0  0
   -0.7512   -2.7804    0.7474 H   0  0  0  0  0  0  0  0  0  0  0  0
   -1.8758    0.6835    2.5183 H   0  0  0  0  0  0  0  0  0  0  0  0
   -0.2043    1.1025    2.1879 H   0  0  0  0  0  0  0  0  0  0  0  0
   -1.4795    2.2593    1.8426 H   0  0  0  0  0  0  0  0  0  0  0  0
   -4.5455   -0.0976    2.2877 H   0  0  0  0  0  0  0  0  0  0  0  0
   -5.3126   -1.5423    1.6843 H   0  0  0  0  0  0  0  0  0  0  0  0
   -6.3767   -0.3735   -0.1177 H   0  0  0  0  0  0  0  0  0  0  0  0
   -6.6440    0.5167    1.3551 H   0  0  0  0  0  0  0  0  0  0  0  0
    5.8295   -0.1110   -1.8494 H   0  0  0  0  0  0  0  0  0  0  0  0
    7.0575   -1.0403   -1.0243 H   0  0  0  0  0  0  0  0  0  0  0  0
    5.5602   -1.8252   -1.5058 H   0  0  0  0  0  0  0  0  0  0  0  0
    5.7068   -2.6252    0.9137 H   0  0  0  0  0  0  0  0  0  0  0  0
    6.9870   -1.5201    1.3871 H   0  0  0  0  0  0  0  0  0  0  0  0
    5.4459   -1.4911    2.2500 H   0  0  0  0  0  0  0  0  0  0  0  0
   -7.0994    2.6941    0.2468 H   0  0  0  0  0  0  0  0  0  0  0  0
   -5.9276    2.8608    1.5626 H   0  0  0  0  0  0  0  0  0  0  0  0
   -5.6423    3.6724    0.0164 H   0  0  0  0  0  0  0  0  0  0  0  0
   -5.0522    2.3297   -2.0533 H   0  0  0  0  0  0  0  0  0  0  0  0
   -5.0216    0.5691   -2.0171 H   0  0  0  0  0  0  0  0  0  0  0  0
   -6.5462    1.4186   -1.8132 H   0  0  0  0  0  0  0  0  0  0  0  0
    7.5104    1.8331    1.0770 H   0  0  0  0  0  0  0  0  0  0  0  0
   -4.8688   -3.4442   -0.9838 H   0  0  0  0  0  0  0  0  0  0  0  0
  1 19  1  0  0  0  0
  1 80  1  0  0  0  0
  2 31  1  0  0  0  0
  2 81  1  0  0  0  0
  3 31  2  0  0  0  0
  4  5  1  0  0  0  0
  4  6  1  0  0  0  0
  4 11  1  0  0  0  0
  4 34  1  0  0  0  0
  5  7  1  0  0  0  0
  5 17  1  0  0  0  0
  5 20  1  0  0  0  0
  6  9  1  0  0  0  0
  6 12  1  0  0  0  0
  6 21  1  0  0  0  0
  7 13  1  0  0  0  0
  7 15  1  0  0  0  0
  7 35  1  0  0  0  0
  8  9  1  0  0  0  0
  8 10  1  0  0  0  0
  8 14  1  0  0  0  0
  8 25  1  0  0  0  0
  9 24  2  0  0  0  0
 10 16  1  0  0  0  0
 10 18  1  0  0  0  0
 10 36  1  0  0  0  0
 11 14  1  0  0  0  0
 11 37  1  0  0  0  0
 11 38  1  0  0  0  0
 12 15  1  0  0  0  0
 12 39  1  0  0  0  0
 12 40  1  0  0  0  0
 13 19  1  0  0  0  0
 13 29  1  0  0  0  0
 13 30  1  0  0  0  0
 14 41  1  0  0  0  0
 14 42  1  0  0  0  0
 15 43  1  0  0  0  0
 15 44  1  0  0  0  0
 16 23  1  0  0  0  0
 16 27  1  0  0  0  0
 16 31  1  0  0  0  0
 17 22  1  0  0  0  0
 17 45  1  0  0  0  0
 17 46  1  0  0  0  0
 18 26  1  0  0  0  0
 18 47  1  0  0  0  0
 18 48  1  0  0  0  0
 19 22  1  0  0  0  0
 19 49  1  0  0  0  0
 20 50  1  0  0  0  0
 20 51  1  0  0  0  0
 20 52  1  0  0  0  0
 21 53  1  0  0  0  0
 21 54  1  0  0  0  0
 21 55  1  0  0  0  0
 22 56  1  0  0  0  0
 22 57  1  0  0  0  0
 23 24  1  0  0  0  0
 23 58  1  0  0  0  0
 23 59  1  0  0  0  0
 24 60  1  0  0  0  0
 25 61  1  0  0  0  0
 25 62  1  0  0  0  0
 25 63  1  0  0  0  0
 26 28  1  0  0  0  0
 26 32  1  0  0  0  0
 26 33  1  0  0  0  0
 27 28  1  0  0  0  0
 27 64  1  0  0  0  0
 27 65  1  0  0  0  0
 28 66  1  0  0  0  0
 28 67  1  0  0  0  0
 29 68  1  0  0  0  0
 29 69  1  0  0  0  0
 29 70  1  0  0  0  0
 30 71  1  0  0  0  0
 30 72  1  0  0  0  0
 30 73  1  0  0  0  0
 32 74  1  0  0  0  0
 32 75  1  0  0  0  0
 32 76  1  0  0  0  0
 33 77  1  0  0  0  0
 33 78  1  0  0  0  0
 33 79  1  0  0  0  0
M  END
> <PUBCHEM_COMPOUND_CID>
161527

> <PUBCHEM_CONFORMER_RMSD>
0.8

> <PUBCHEM_CONFORMER_DIVERSEORDER>
1
2

> <PUBCHEM_MMFF94_PARTIAL_CHARGES>
14
1 -0.68
16 0.06
19 0.28
2 -0.65
23 0.14
24 -0.29
3 -0.57
31 0.66
6 0.14
60 0.15
8 0.14
80 0.4
81 0.5
9 -0.28

> <PUBCHEM_EFFECTIVE_ROTOR_COUNT>
3.6

> <PUBCHEM_PHARMACOPHORE_FEATURES>
12
1 1 acceptor
1 1 donor
1 2 acceptor
1 3 acceptor
3 13 29 30 hydrophobe
3 2 3 31 anion
3 26 32 33 hydrophobe
6 10 16 18 26 27 28 rings
6 4 5 6 7 12 15 rings
6 4 6 8 9 11 14 rings
6 5 7 13 17 19 22 rings
6 8 9 10 16 23 24 rings

> <PUBCHEM_HEAVY_ATOM_COUNT>
33

> <PUBCHEM_ATOM_DEF_STEREO_COUNT>
8

> <PUBCHEM_ATOM_UDEF_STEREO_COUNT>
0

> <PUBCHEM_BOND_DEF_STEREO_COUNT>
0

> <PUBCHEM_BOND_UDEF_STEREO_COUNT>
0

> <PUBCHEM_ISOTOPIC_ATOM_COUNT>
0

> <PUBCHEM_COMPONENT_COUNT>
1

> <PUBCHEM_CACTVS_TAUTO_COUNT>
1

> <PUBCHEM_CONFORMER_ID>
000276F700000001

> <PUBCHEM_MMFF94_ENERGY>
153.6101

> <PUBCHEM_FEATURE_SELFOVERLAP>
61.009

> <PUBCHEM_SHAPE_FINGERPRINT>
10675989 125 17694791718745396209
10835480 77 18410288138246952944
10906281 52 18261408723184757150
12166972 35 18334581273948678252
12236239 1 18272087214573741238
12422481 6 18343300349469433998
12616971 3 17095249128448956341
12788726 201 18267863878769029233
13224815 77 18201727274815127599
13533116 47 17749949943481179178
13583140 156 16773789299171795307
13811026 1 18408036316641166436
14394314 77 18335138683083415368
14790565 3 18266742561771015300
14856354 85 13840272489656946587
15021287 119 16515408460406906101
15183329 4 17749108893730319798
15196674 1 18409450310259246472
15238133 3 18186812374220763628
15361156 5 18260841392612529716
15788980 27 18334298673167965335
15799311 1 14201399395539690248
17349148 13 18334579061802923090
17980427 23 18261395576221260605
1813 80 16153709834442500262
18393751 57 16187180368868495137
18608769 82 18409734002415203739
20511986 3 18336817620089899723
20715895 44 18336828576641506305
21033648 29 17095515171835090933
21130935 74 18335138678978346162
21236236 1 18409727391806173127
21279426 13 18408605838163654078
21859007 373 17314498232612945333
21987440 362 17246664863976706581
22393880 68 18341059574488605399
23402539 116 18409727369972764039
23522609 53 17824009795032063924
23559900 14 18342451569047221248
23569943 247 16444454681685399762
24771293 8 18338229488353880500
2838139 119 18340483375141681597
3004659 81 18041006133214334028
32027 91 17558570018401649566
335352 9 18334297534969977212
3383291 50 17822578334008877451
34797466 226 17489315199676966740
34934 24 18411698743135154195
350125 39 18334297544182533684
3633792 109 18268426837713233113
3680242 22 18041000579352063898
392239 28 18201727275089590784
4073 2 18113624525347992674
4093350 32 17560524988655901022
4340502 62 18335143059438077936
5104073 3 18261115174907090272
5283173 99 18334856070019336397
57724786 102 16443643383875106788
59755656 215 18335705984138803254
59755656 520 16081093671154230457
6086070 43 17846206799981486281
7226269 152 18342739577217659401

> <PUBCHEM_SHAPE_MULTIPOLES>
661.52
16.3
2.63
1.43
6.63
0.08
0.36
-3.59
-1.8
-1.61
-0.07
-0.24
0.15
-0.1

> <PUBCHEM_SHAPE_SELFOVERLAP>
1409.388

> <PUBCHEM_SHAPE_VOLUME>
362.1

> <PUBCHEM_COORDINATE_TYPE>
2
5
10

$$$$
