163196230
  -OEChem-03052615063D

 60 61  0     1  0  0  0  0  0999 V2000
   -2.6679    0.4669   -0.2178 O   0  0  0  0  0  0  0  0  0  0  0  0
   -1.8295   -2.7464   -2.1098 O   0  5  0  0  0  0  0  0  0  0  0  0
    1.5355   -0.6713    0.6193 O   0  0  0  0  0  0  0  0  0  0  0  0
    4.2550    1.6461    0.7927 O   0  0  0  0  0  0  0  0  0  0  0  0
   -3.2569    1.6672    1.6571 O   0  0  0  0  0  0  0  0  0  0  0  0
    3.3420   -1.1786   -1.3819 O   0  0  0  0  0  0  0  0  0  0  0  0
    2.7597    0.1819    2.3692 O   0  0  0  0  0  0  0  0  0  0  0  0
    1.3939    1.0187   -1.4329 O   0  0  0  0  0  0  0  0  0  0  0  0
   -2.0733   -2.6761   -0.7736 N   0  3  1  0  0  0  0  0  0  0  0  0
   -1.2919   -1.5248   -0.1083 C   0  0  1  0  0  0  0  0  0  0  0  0
   -2.3415   -0.6580    0.5943 C   0  0  2  0  0  0  0  0  0  0  0  0
   -3.5310   -2.3975   -0.5045 C   0  0  0  0  0  0  0  0  0  0  0  0
   -3.5533   -1.5614    0.7582 C   0  0  0  0  0  0  0  0  0  0  0  0
   -1.5849   -3.9307   -0.0554 C   0  0  0  0  0  0  0  0  0  0  0  0
   -0.3036   -2.1835    0.8125 C   0  0  0  0  0  0  0  0  0  0  0  0
   -0.4676   -3.5091    0.8328 C   0  0  0  0  0  0  0  0  0  0  0  0
    0.7279   -1.4041    1.5459 C   0  0  0  0  0  0  0  0  0  0  0  0
   -3.1164    1.5706    0.4461 C   0  0  0  0  0  0  0  0  0  0  0  0
    3.3181    0.8241    0.0779 C   0  0  2  0  0  0  0  0  0  0  0  0
    2.5255    0.0893    1.1696 C   0  0  0  0  0  0  0  0  0  0  0  0
    4.1703   -0.1837   -0.7737 C   0  0  0  0  0  0  0  0  0  0  0  0
    2.3985    1.7654   -0.7527 C   0  0  2  0  0  0  0  0  0  0  0  0
   -3.4096    2.6608   -0.5329 C   0  0  0  0  0  0  0  0  0  0  0  0
    4.9501    0.5170   -1.9010 C   0  0  0  0  0  0  0  0  0  0  0  0
    5.1813   -0.9509    0.0946 C   0  0  0  0  0  0  0  0  0  0  0  0
    1.7104    2.8697    0.0533 C   0  0  0  0  0  0  0  0  0  0  0  0
   -4.4681    2.4209   -1.5684 C   0  0  0  0  0  0  0  0  0  0  0  0
   -2.7045    3.7962   -0.3756 C   0  0  0  0  0  0  0  0  0  0  0  0
   -1.6682    4.0814    0.6648 C   0  0  0  0  0  0  0  0  0  0  0  0
   -0.7815   -0.9895   -0.9178 H   0  0  0  0  0  0  0  0  0  0  0  0
   -1.9765   -0.3174    1.5699 H   0  0  0  0  0  0  0  0  0  0  0  0
   -4.0772   -3.3422   -0.4404 H   0  0  0  0  0  0  0  0  0  0  0  0
   -3.8969   -1.8220   -1.3632 H   0  0  0  0  0  0  0  0  0  0  0  0
   -4.4951   -1.0136    0.8546 H   0  0  0  0  0  0  0  0  0  0  0  0
   -3.4301   -2.2062    1.6357 H   0  0  0  0  0  0  0  0  0  0  0  0
   -1.2542   -4.6385   -0.8216 H   0  0  0  0  0  0  0  0  0  0  0  0
   -2.4108   -4.3562    0.5211 H   0  0  0  0  0  0  0  0  0  0  0  0
    0.1305   -4.1980    1.4114 H   0  0  0  0  0  0  0  0  0  0  0  0
    1.3735   -2.0747    2.1261 H   0  0  0  0  0  0  0  0  0  0  0  0
    0.2446   -0.7057    2.2382 H   0  0  0  0  0  0  0  0  0  0  0  0
    3.0005    2.2784   -1.5106 H   0  0  0  0  0  0  0  0  0  0  0  0
    4.2761    0.8961   -2.6761 H   0  0  0  0  0  0  0  0  0  0  0  0
    5.5626    1.3419   -1.5241 H   0  0  0  0  0  0  0  0  0  0  0  0
    5.6135   -0.1906   -2.4131 H   0  0  0  0  0  0  0  0  0  0  0  0
    4.6845   -1.4896    0.9086 H   0  0  0  0  0  0  0  0  0  0  0  0
    5.6953   -1.7195   -0.4962 H   0  0  0  0  0  0  0  0  0  0  0  0
    5.9507   -0.2995    0.5203 H   0  0  0  0  0  0  0  0  0  0  0  0
    1.0252    2.4441    0.7929 H   0  0  0  0  0  0  0  0  0  0  0  0
    1.1108    3.5009   -0.6107 H   0  0  0  0  0  0  0  0  0  0  0  0
    2.4350    3.5064    0.5687 H   0  0  0  0  0  0  0  0  0  0  0  0
    4.7001    1.1078    1.4678 H   0  0  0  0  0  0  0  0  0  0  0  0
    3.9041   -1.7560   -1.9262 H   0  0  0  0  0  0  0  0  0  0  0  0
   -5.4079    2.1280   -1.0895 H   0  0  0  0  0  0  0  0  0  0  0  0
   -4.6600    3.3195   -2.1636 H   0  0  0  0  0  0  0  0  0  0  0  0
   -4.1621    1.6227   -2.2519 H   0  0  0  0  0  0  0  0  0  0  0  0
    0.8800    1.6389   -1.9775 H   0  0  0  0  0  0  0  0  0  0  0  0
   -2.9102    4.6204   -1.0563 H   0  0  0  0  0  0  0  0  0  0  0  0
   -2.0924    4.7177    1.4475 H   0  0  0  0  0  0  0  0  0  0  0  0
   -0.8388    4.6282    0.2057 H   0  0  0  0  0  0  0  0  0  0  0  0
   -1.2483    3.1865    1.1285 H   0  0  0  0  0  0  0  0  0  0  0  0
  1 11  1  0  0  0  0
  1 18  1  0  0  0  0
  2  9  1  0  0  0  0
  3 17  1  0  0  0  0
  3 20  1  0  0  0  0
  4 19  1  0  0  0  0
  4 51  1  0  0  0  0
  5 18  2  0  0  0  0
  6 21  1  0  0  0  0
  6 52  1  0  0  0  0
  7 20  2  0  0  0  0
  8 22  1  0  0  0  0
  8 56  1  0  0  0  0
  9 10  1  0  0  0  0
  9 12  1  0  0  0  0
  9 14  1  0  0  0  0
 10 11  1  0  0  0  0
 10 15  1  0  0  0  0
 10 30  1  0  0  0  0
 11 13  1  0  0  0  0
 11 31  1  0  0  0  0
 12 13  1  0  0  0  0
 12 32  1  0  0  0  0
 12 33  1  0  0  0  0
 13 34  1  0  0  0  0
 13 35  1  0  0  0  0
 14 16  1  0  0  0  0
 14 36  1  0  0  0  0
 14 37  1  0  0  0  0
 15 16  2  0  0  0  0
 15 17  1  0  0  0  0
 16 38  1  0  0  0  0
 17 39  1  0  0  0  0
 17 40  1  0  0  0  0
 18 23  1  0  0  0  0
 19 20  1  0  0  0  0
 19 21  1  0  0  0  0
 19 22  1  0  0  0  0
 21 24  1  0  0  0  0
 21 25  1  0  0  0  0
 22 26  1  0  0  0  0
 22 41  1  0  0  0  0
 23 27  1  0  0  0  0
 23 28  2  0  0  0  0
 24 42  1  0  0  0  0
 24 43  1  0  0  0  0
 24 44  1  0  0  0  0
 25 45  1  0  0  0  0
 25 46  1  0  0  0  0
 25 47  1  0  0  0  0
 26 48  1  0  0  0  0
 26 49  1  0  0  0  0
 26 50  1  0  0  0  0
 27 53  1  0  0  0  0
 27 54  1  0  0  0  0
 27 55  1  0  0  0  0
 28 29  1  0  0  0  0
 28 57  1  0  0  0  0
 29 58  1  0  0  0  0
 29 59  1  0  0  0  0
 29 60  1  0  0  0  0
M  CHG  2   2  -1   9   1
M  END
> <PUBCHEM_COMPOUND_CID>
163196230

> <PUBCHEM_CONFORMER_RMSD>
1.2

> <PUBCHEM_CONFORMER_DIVERSEORDER>
1
98
132
46
87
83
178
90
176
59
117
144
75
175
55
86
24
72
128
165
49
111
85
169
174
103
81
78
96
79
66
106
14
173
161
154
101
94
119
138
64
57
172
76
167
99
95
26
34
125
60
113
164
50
54
8
104
91
171
21
70
123
142
6
92
47
80
88
124
43
159
126
61
62
71
179
122
143
139
97
150
15
9
40
155
100
114
134
93
63
22
152
105
120
3
109
23
10
170
149
68
36
39
151
135
148
89
44
48
153
74
107
108
84
29
56
121
112
2
45
77
5
136
51
140
157
130
133
41
28
158
65
13
116
42
145
19
20
146
16
137
160
7
82
27
17
163
156
162
18
115
102
38
69
141
127
166
35
4
147
33
73
67
30
129
25
131
177
32
58
11
110
37
118
31
52
168
53
12

> <PUBCHEM_MMFF94_PARTIAL_CHARGES>
30
1 -0.43
10 0.39
11 0.28
12 0.26
14 0.39
15 -0.28
16 -0.29
17 0.42
18 0.71
19 0.34
2 -0.75
20 0.66
21 0.28
22 0.28
23 -0.12
27 0.14
28 -0.29
29 0.14
3 -0.43
38 0.15
4 -0.68
5 -0.57
51 0.4
52 0.4
56 0.4
57 0.15
6 -0.68
7 -0.57
8 -0.68
9 -0.02

> <PUBCHEM_EFFECTIVE_ROTOR_COUNT>
9.8

> <PUBCHEM_PHARMACOPHORE_FEATURES>
14
1 2 anion
1 27 hydrophobe
1 29 hydrophobe
1 4 acceptor
1 4 donor
1 5 acceptor
1 6 acceptor
1 6 donor
1 7 acceptor
1 8 acceptor
1 8 donor
3 21 24 25 hydrophobe
5 9 10 11 12 13 rings
5 9 10 14 15 16 rings

> <PUBCHEM_HEAVY_ATOM_COUNT>
29

> <PUBCHEM_ATOM_DEF_STEREO_COUNT>
4

> <PUBCHEM_ATOM_UDEF_STEREO_COUNT>
1

> <PUBCHEM_BOND_DEF_STEREO_COUNT>
1

> <PUBCHEM_BOND_UDEF_STEREO_COUNT>
0

> <PUBCHEM_ISOTOPIC_ATOM_COUNT>
0

> <PUBCHEM_COMPONENT_COUNT>
1

> <PUBCHEM_CACTVS_TAUTO_COUNT>
-1

> <PUBCHEM_CONFORMER_ID>
09BA2D4600000001

> <PUBCHEM_MMFF94_ENERGY>
70.2736

> <PUBCHEM_FEATURE_SELFOVERLAP>
71.553

> <PUBCHEM_SHAPE_FINGERPRINT>
10165383 225 18128555781520744113
10483366 6 17403191296172575526
10498660 4 18409443653144684625
10670039 82 18335423473584344294
10871710 139 18335983164184933069
11059048 146 17982175517545055553
11513181 2 17693648221866360389
11578080 2 17560242552229190656
11582403 64 16193048122220886866
12156800 1 15371678864486961505
12160290 23 18271796965221665971
12173636 292 18336262443838094466
12422481 6 18124348040995185539
12553582 1 18050005794458423217
12788726 201 18262799704214908983
13122387 1 18337389327550683569
13583140 156 17131255978854950642
13690498 29 18127432235419718054
13944108 23 17040077537823291948
14251751 93 18335989692097451067
14251757 5 18337690684146993068
14289585 56 16879643553334661260
14363568 33 17260490079907049411
14910302 57 17560519632874406926
151778 21 17835530323349044849
15575132 122 18259988176158564725
15664445 248 16897663874166622214
15961568 22 17762891465722952152
16752209 62 18409158944157657767
16988056 13 16534528649807670565
1813 80 17625249102721191223
19311894 1 18340494356876756464
19930381 70 16825593098746955611
20567600 299 17188955836224541289
20775438 99 17408760700745624253
21033650 10 18262253200303115970
21756936 100 17603881017573309194
21860390 5 17044562454721674351
21864079 5 18114179756801993096
21987440 362 17469889879274175836
22113638 7 18334287652578134205
22907989 373 18410848889461429469
23559900 14 18128537261684949930
26353 1 17409898733745271103
3052486 1 18334289860470191016
3298306 158 18119523246222600005
350125 39 18409739447790059179
35225 105 18338500972561128901
46194498 28 18057339464270296902
469060 322 13986645133723296498
474 4 17832696878005841329
5048184 11 18262516992261542097
508706 21 18343032085464278318
5161694 15 17703800236127601594
5895379 119 18335702797468397632
6287921 2 17548685293504718213
6523845 18 18271254802804208905
7399639 24 17270022162883501018
9709674 26 18197221566770420750

> <PUBCHEM_SHAPE_MULTIPOLES>
544.87
9.26
5.2
1.63
7.11
0.43
-0.09
3.72
-2.33
-6.23
-0.26
0.59
-0.1
-0.19

> <PUBCHEM_SHAPE_SELFOVERLAP>
1120.521

> <PUBCHEM_SHAPE_VOLUME>
313.6

> <PUBCHEM_COORDINATE_TYPE>
2
5
10

$$$$
