169445654
  -OEChem-03052615063D

 51 57  0     1  0  0  0  0  0999 V2000
   -0.5145   -1.5202    1.3968 O   0  0  0  0  0  0  0  0  0  0  0  0
    1.6183    1.4105    0.0113 O   0  0  0  0  0  0  0  0  0  0  0  0
   -0.4780   -0.9159   -1.6949 O   0  0  0  0  0  0  0  0  0  0  0  0
   -5.0510   -2.6701   -0.5090 O   0  0  0  0  0  0  0  0  0  0  0  0
   -6.3611   -0.6528   -0.5636 O   0  0  0  0  0  0  0  0  0  0  0  0
    6.3916    0.7809   -1.6908 O   0  0  0  0  0  0  0  0  0  0  0  0
    7.6212   -0.3123    0.0701 O   0  0  0  0  0  0  0  0  0  0  0  0
    0.0472   -0.2640   -0.5533 C   0  0  2  0  0  0  0  0  0  0  0  0
    1.2884   -0.9585   -0.0527 C   0  0  1  0  0  0  0  0  0  0  0  0
   -0.8891   -0.3340    0.6644 C   0  0  1  0  0  0  0  0  0  0  0  0
    2.0565    0.1811    0.6288 C   0  0  1  0  0  0  0  0  0  0  0  0
    0.5511    1.1186   -0.9018 C   0  0  0  0  0  0  0  0  0  0  0  0
    0.7411   -2.0052    0.8989 C   0  0  0  0  0  0  0  0  0  0  0  0
   -2.3657   -0.3237    0.3449 C   0  0  0  0  0  0  0  0  0  0  0  0
    3.5545    0.0312    0.5118 C   0  0  0  0  0  0  0  0  0  0  0  0
   -3.1113    0.8785    0.3201 C   0  0  0  0  0  0  0  0  0  0  0  0
   -2.9652   -1.5560    0.0732 C   0  0  0  0  0  0  0  0  0  0  0  0
    4.2150    0.5264   -0.6151 C   0  0  0  0  0  0  0  0  0  0  0  0
    4.2717   -0.6067    1.5392 C   0  0  0  0  0  0  0  0  0  0  0  0
   -4.4950    0.8410    0.0143 C   0  0  0  0  0  0  0  0  0  0  0  0
   -4.3111   -1.5645   -0.2211 C   0  0  0  0  0  0  0  0  0  0  0  0
   -5.0558   -0.4067   -0.2509 C   0  0  0  0  0  0  0  0  0  0  0  0
   -2.5102    2.1177    0.5929 C   0  0  0  0  0  0  0  0  0  0  0  0
    5.5840    0.3656   -0.6773 C   0  0  0  0  0  0  0  0  0  0  0  0
    5.6579   -0.7565    1.4515 C   0  0  0  0  0  0  0  0  0  0  0  0
    6.2860   -0.2587    0.3283 C   0  0  0  0  0  0  0  0  0  0  0  0
   -5.2350    2.0375   -0.0099 C   0  0  0  0  0  0  0  0  0  0  0  0
   -3.2573    3.2965    0.5651 C   0  0  0  0  0  0  0  0  0  0  0  0
   -6.3490   -2.0844   -0.7249 C   0  0  0  0  0  0  0  0  0  0  0  0
   -4.6161    3.2566    0.2646 C   0  0  0  0  0  0  0  0  0  0  0  0
    7.6809    0.3482   -1.2106 C   0  0  0  0  0  0  0  0  0  0  0  0
    1.8773   -1.4295   -0.8489 H   0  0  0  0  0  0  0  0  0  0  0  0
   -0.6553    0.4571    1.3829 H   0  0  0  0  0  0  0  0  0  0  0  0
    1.7910    0.2716    1.6898 H   0  0  0  0  0  0  0  0  0  0  0  0
    0.9735    1.1444   -1.9137 H   0  0  0  0  0  0  0  0  0  0  0  0
   -0.2015    1.9056   -0.8656 H   0  0  0  0  0  0  0  0  0  0  0  0
    0.5365   -2.9417    0.3689 H   0  0  0  0  0  0  0  0  0  0  0  0
    1.4082   -2.2244    1.7373 H   0  0  0  0  0  0  0  0  0  0  0  0
    0.2094   -0.9339   -2.3822 H   0  0  0  0  0  0  0  0  0  0  0  0
   -2.4074   -2.4863    0.0770 H   0  0  0  0  0  0  0  0  0  0  0  0
    3.6859    1.0140   -1.4265 H   0  0  0  0  0  0  0  0  0  0  0  0
    3.7528   -0.9916    2.4136 H   0  0  0  0  0  0  0  0  0  0  0  0
   -1.4661    2.2266    0.8606 H   0  0  0  0  0  0  0  0  0  0  0  0
    6.2146   -1.2479    2.2412 H   0  0  0  0  0  0  0  0  0  0  0  0
   -6.2975    2.0292   -0.2420 H   0  0  0  0  0  0  0  0  0  0  0  0
   -2.7788    4.2468    0.7843 H   0  0  0  0  0  0  0  0  0  0  0  0
   -6.6789   -2.3259   -1.7418 H   0  0  0  0  0  0  0  0  0  0  0  0
   -7.0561   -2.5241   -0.0122 H   0  0  0  0  0  0  0  0  0  0  0  0
   -5.1951    4.1753    0.2451 H   0  0  0  0  0  0  0  0  0  0  0  0
    8.1138   -0.3436   -1.9424 H   0  0  0  0  0  0  0  0  0  0  0  0
    8.3349    1.2234   -1.1239 H   0  0  0  0  0  0  0  0  0  0  0  0
  1 10  1  0  0  0  0
  1 13  1  0  0  0  0
  2 11  1  0  0  0  0
  2 12  1  0  0  0  0
  3  8  1  0  0  0  0
  3 39  1  0  0  0  0
  4 21  1  0  0  0  0
  4 29  1  0  0  0  0
  5 22  1  0  0  0  0
  5 29  1  0  0  0  0
  6 24  1  0  0  0  0
  6 31  1  0  0  0  0
  7 26  1  0  0  0  0
  7 31  1  0  0  0  0
  8  9  1  0  0  0  0
  8 10  1  0  0  0  0
  8 12  1  0  0  0  0
  9 11  1  0  0  0  0
  9 13  1  0  0  0  0
  9 32  1  0  0  0  0
 10 14  1  0  0  0  0
 10 33  1  0  0  0  0
 11 15  1  0  0  0  0
 11 34  1  0  0  0  0
 12 35  1  0  0  0  0
 12 36  1  0  0  0  0
 13 37  1  0  0  0  0
 13 38  1  0  0  0  0
 14 16  1  0  0  0  0
 14 17  2  0  0  0  0
 15 18  2  0  0  0  0
 15 19  1  0  0  0  0
 16 20  1  0  0  0  0
 16 23  2  0  0  0  0
 17 21  1  0  0  0  0
 17 40  1  0  0  0  0
 18 24  1  0  0  0  0
 18 41  1  0  0  0  0
 19 25  2  0  0  0  0
 19 42  1  0  0  0  0
 20 22  1  0  0  0  0
 20 27  2  0  0  0  0
 21 22  2  0  0  0  0
 23 28  1  0  0  0  0
 23 43  1  0  0  0  0
 24 26  2  0  0  0  0
 25 26  1  0  0  0  0
 25 44  1  0  0  0  0
 27 30  1  0  0  0  0
 27 45  1  0  0  0  0
 28 30  2  0  0  0  0
 28 46  1  0  0  0  0
 29 47  1  0  0  0  0
 29 48  1  0  0  0  0
 30 49  1  0  0  0  0
 31 50  1  0  0  0  0
 31 51  1  0  0  0  0
M  END
> <PUBCHEM_COMPOUND_CID>
169445654

> <PUBCHEM_CONFORMER_RMSD>
0.8

> <PUBCHEM_CONFORMER_DIVERSEORDER>
1
3
15
10
13
12
18
11
2
4
16
9
5
14
6
17
7
8

> <PUBCHEM_MMFF94_PARTIAL_CHARGES>
37
1 -0.56
10 0.42
11 0.42
12 0.28
13 0.28
14 -0.14
15 -0.14
17 -0.15
18 -0.15
19 -0.15
2 -0.56
21 0.08
22 0.08
23 -0.15
24 0.08
25 -0.15
26 0.08
27 -0.15
28 -0.15
29 0.56
3 -0.68
30 -0.15
31 0.56
39 0.4
4 -0.36
40 0.15
41 0.15
42 0.15
43 0.15
44 0.15
45 0.15
46 0.15
49 0.15
5 -0.36
6 -0.36
7 -0.36
8 0.28

> <PUBCHEM_EFFECTIVE_ROTOR_COUNT>
4.4

> <PUBCHEM_PHARMACOPHORE_FEATURES>
15
1 1 acceptor
1 2 acceptor
1 3 acceptor
1 3 donor
1 4 acceptor
1 5 acceptor
1 6 acceptor
1 7 acceptor
5 1 8 9 10 13 rings
5 2 8 9 11 12 rings
5 4 5 21 22 29 rings
5 6 7 24 26 31 rings
6 14 16 17 20 21 22 rings
6 15 18 19 24 25 26 rings
6 16 20 23 27 28 30 rings

> <PUBCHEM_HEAVY_ATOM_COUNT>
31

> <PUBCHEM_ATOM_DEF_STEREO_COUNT>
4

> <PUBCHEM_ATOM_UDEF_STEREO_COUNT>
0

> <PUBCHEM_BOND_DEF_STEREO_COUNT>
0

> <PUBCHEM_BOND_UDEF_STEREO_COUNT>
0

> <PUBCHEM_ISOTOPIC_ATOM_COUNT>
0

> <PUBCHEM_COMPONENT_COUNT>
1

> <PUBCHEM_CACTVS_TAUTO_COUNT>
-1

> <PUBCHEM_CONFORMER_ID>
0A19891600000001

> <PUBCHEM_MMFF94_ENERGY>
108.1424

> <PUBCHEM_FEATURE_SELFOVERLAP>
76.922

> <PUBCHEM_SHAPE_FINGERPRINT>
10076449 9 16917077681096514568
10299344 5 18186801370815257258
10411042 1 18124593335595019111
10595046 47 18408039598239248186
10670039 82 18410008832033041169
10674148 151 18335987477123571146
10906281 52 17968108494965404994
11007060 377 17095524027931112856
11089746 13 18187087269566175692
11135609 187 17531238487275379290
11315181 36 17967536804420895371
11524674 6 15984824869669709439
11991303 11 16988275499410648438
12107183 9 17759795953463099947
12107698 1 18341048609579646589
12166972 35 18334294318203587229
12236239 1 18187365420074467520
12403259 415 17561356288282079552
12516196 113 18334290989999142876
12645989 146 18058445590195707767
13631057 29 18341609331025010569
13782708 43 17418089966048455462
14068700 675 18337951298546804693
14117953 113 18202560705604759693
14294032 229 18269278976658116097
14747281 78 16125580861156078545
14790565 3 18186805755887202152
14840074 17 16805605863103204110
14856354 85 18340208595802915863
15131766 46 15359406258265039118
15183329 4 17894346688011126802
15276724 80 17385720292877875180
15297060 5 18130508536063235537
15419008 47 17561360690613418320
15439362 3 17695636151869700349
15461852 350 18343309180428466668
1577012 14 18187645774001482088
15849732 13 18060419153384749716
16090146 7 17458356263690611978
16126227 98 18056205679184352985
16992828 155 17677891211151071365
17349148 13 18113894988002039291
17686467 74 18189333631682472660
17844677 252 18343022224625418136
17980427 23 17968106304278655997
18681886 176 18339918319983904689
18927931 339 18343581872060010767
19311894 1 17911788382660705007
19427546 20 18408882920127468149
19489759 90 18342739615376096299
20511986 3 18113886148410880281
20567600 75 17847066562698293876
21033648 29 17202747250820437712
21033650 10 18194992689228849484
21065198 48 18261669285865496642
21150785 3 18040997379712418502
21236236 1 18407760326390654665
21267235 1 18338800121771315427
21315759 40 18040711468419508954
21792961 116 17346604041659753830
21927370 108 18268721661943925643
2303208 19 17275389806898882614
23081809 10 18113335297939293274
23522609 53 18041578944402715492
23559900 14 18192146216443021537
23569914 152 15260609253534270524
23569917 315 18040721363671784442
23569943 247 16662313019615158418
24771293 8 18261111907424181204
249057 25 18187090567863890604
25147074 1 18114454570432276946
255183 451 17768237270394325103
335352 9 18411974768589631357
34797466 226 17560521806728784272
3633792 109 17313376846890621799
394071 54 16443071591132590206
397830 11 16987702679707211234
4169191 19 16950575419190461740
4258327 124 16154287137644329350
4339292 15 17560506400539078647
445580 37 18411703170734733533
44880568 143 18059583473098625432
484989 97 17679588002811683155
497634 4 18114176445492887031
49967989 163 18189629387177996894
504579 68 18335133193840294167
5265222 85 18129943515708899358
54039377 194 18189620604861251275
563151 97 18040710317236515419
58083652 198 16660359299359184564
59755656 215 17847065488798857598
6328613 192 17895198835308365780
9831232 110 18128259987709365182
9896288 288 18341337726010234163

> <PUBCHEM_SHAPE_MULTIPOLES>
596.88
18.95
2.61
1.2
21.61
1.28
-0.04
-0.27
-3.85
-6.16
0.24
1.51
-0.16
-1.96

> <PUBCHEM_SHAPE_SELFOVERLAP>
1375.638

> <PUBCHEM_SHAPE_VOLUME>
309

> <PUBCHEM_COORDINATE_TYPE>
2
5
10

$$$$
