1711944
  -OEChem-03052615073D

 49 48  0     0  0  0  0  0  0999 V2000
    4.3829    2.7690   -0.2228 O   0  0  0  0  0  0  0  0  0  0  0  0
    1.4714   -3.1885   -0.5559 C   0  0  0  0  0  0  0  0  0  0  0  0
    0.0212   -3.0720   -0.0638 C   0  0  0  0  0  0  0  0  0  0  0  0
   -1.5703   -0.3931    0.2892 C   0  0  0  0  0  0  0  0  0  0  0  0
   -0.7918   -1.1098    1.3705 C   0  0  0  0  0  0  0  0  0  0  0  0
    2.1279   -1.8650   -0.9074 C   0  0  0  0  0  0  0  0  0  0  0  0
   -0.1040   -2.2549    1.1932 C   0  0  0  0  0  0  0  0  0  0  0  0
   -3.0477   -0.8038    0.2638 C   0  0  0  0  0  0  0  0  0  0  0  0
    2.8224   -1.1909    0.0306 C   0  0  0  0  0  0  0  0  0  0  0  0
    3.4918    0.1515   -0.0841 C   0  0  0  0  0  0  0  0  0  0  0  0
   -0.7775   -0.4218    2.7118 C   0  0  0  0  0  0  0  0  0  0  0  0
    1.8827   -1.3866   -2.3119 C   0  0  0  0  0  0  0  0  0  0  0  0
    2.5298    1.3055    0.1846 C   0  0  0  0  0  0  0  0  0  0  0  0
   -3.8115   -0.0005   -0.7526 C   0  0  0  0  0  0  0  0  0  0  0  0
   -4.4579    1.1681   -0.5797 C   0  0  0  0  0  0  0  0  0  0  0  0
    3.1962    2.6628    0.0861 C   0  0  0  0  0  0  0  0  0  0  0  0
   -5.1845    1.8113   -1.7318 C   0  0  0  0  0  0  0  0  0  0  0  0
   -4.5328    1.9430    0.7046 C   0  0  0  0  0  0  0  0  0  0  0  0
    2.3516    3.8756    0.3754 C   0  0  0  0  0  0  0  0  0  0  0  0
    2.0677   -3.7020    0.2112 H   0  0  0  0  0  0  0  0  0  0  0  0
    1.5024   -3.8500   -1.4313 H   0  0  0  0  0  0  0  0  0  0  0  0
   -0.6100   -2.6830   -0.8688 H   0  0  0  0  0  0  0  0  0  0  0  0
   -0.3549   -4.0798    0.1520 H   0  0  0  0  0  0  0  0  0  0  0  0
   -1.1183   -0.5698   -0.6941 H   0  0  0  0  0  0  0  0  0  0  0  0
   -1.4802    0.6900    0.4478 H   0  0  0  0  0  0  0  0  0  0  0  0
    0.4284   -2.6695    2.0486 H   0  0  0  0  0  0  0  0  0  0  0  0
   -3.4989   -0.6900    1.2561 H   0  0  0  0  0  0  0  0  0  0  0  0
   -3.1414   -1.8677    0.0126 H   0  0  0  0  0  0  0  0  0  0  0  0
    2.9049   -1.6375    1.0211 H   0  0  0  0  0  0  0  0  0  0  0  0
    4.3263    0.1846    0.6279 H   0  0  0  0  0  0  0  0  0  0  0  0
    3.9502    0.2607   -1.0744 H   0  0  0  0  0  0  0  0  0  0  0  0
   -0.1990   -0.9752    3.4591 H   0  0  0  0  0  0  0  0  0  0  0  0
   -0.3333    0.5750    2.6214 H   0  0  0  0  0  0  0  0  0  0  0  0
   -1.7971   -0.3152    3.0957 H   0  0  0  0  0  0  0  0  0  0  0  0
    0.8080   -1.3104   -2.5058 H   0  0  0  0  0  0  0  0  0  0  0  0
    2.3189   -0.4037   -2.5079 H   0  0  0  0  0  0  0  0  0  0  0  0
    2.3156   -2.0902   -3.0303 H   0  0  0  0  0  0  0  0  0  0  0  0
    2.1082    1.2126    1.1924 H   0  0  0  0  0  0  0  0  0  0  0  0
    1.7035    1.2878   -0.5352 H   0  0  0  0  0  0  0  0  0  0  0  0
   -3.8222   -0.4468   -1.7466 H   0  0  0  0  0  0  0  0  0  0  0  0
   -6.2464    1.9281   -1.4917 H   0  0  0  0  0  0  0  0  0  0  0  0
   -4.7639    2.8006   -1.9402 H   0  0  0  0  0  0  0  0  0  0  0  0
   -5.1157    1.2212   -2.6517 H   0  0  0  0  0  0  0  0  0  0  0  0
   -4.1486    2.9578    0.5565 H   0  0  0  0  0  0  0  0  0  0  0  0
   -3.9472    1.4903    1.5091 H   0  0  0  0  0  0  0  0  0  0  0  0
   -5.5710    2.0120    1.0449 H   0  0  0  0  0  0  0  0  0  0  0  0
    1.9737    3.8215    1.3993 H   0  0  0  0  0  0  0  0  0  0  0  0
    2.9555    4.7808    0.2679 H   0  0  0  0  0  0  0  0  0  0  0  0
    1.5199    3.9182   -0.3319 H   0  0  0  0  0  0  0  0  0  0  0  0
  1 16  2  0  0  0  0
  2  3  1  0  0  0  0
  2  6  1  0  0  0  0
  2 20  1  0  0  0  0
  2 21  1  0  0  0  0
  3  7  1  0  0  0  0
  3 22  1  0  0  0  0
  3 23  1  0  0  0  0
  4  5  1  0  0  0  0
  4  8  1  0  0  0  0
  4 24  1  0  0  0  0
  4 25  1  0  0  0  0
  5  7  2  0  0  0  0
  5 11  1  0  0  0  0
  6  9  2  0  0  0  0
  6 12  1  0  0  0  0
  7 26  1  0  0  0  0
  8 14  1  0  0  0  0
  8 27  1  0  0  0  0
  8 28  1  0  0  0  0
  9 10  1  0  0  0  0
  9 29  1  0  0  0  0
 10 13  1  0  0  0  0
 10 30  1  0  0  0  0
 10 31  1  0  0  0  0
 11 32  1  0  0  0  0
 11 33  1  0  0  0  0
 11 34  1  0  0  0  0
 12 35  1  0  0  0  0
 12 36  1  0  0  0  0
 12 37  1  0  0  0  0
 13 16  1  0  0  0  0
 13 38  1  0  0  0  0
 13 39  1  0  0  0  0
 14 15  2  0  0  0  0
 14 40  1  0  0  0  0
 15 17  1  0  0  0  0
 15 18  1  0  0  0  0
 16 19  1  0  0  0  0
 17 41  1  0  0  0  0
 17 42  1  0  0  0  0
 17 43  1  0  0  0  0
 18 44  1  0  0  0  0
 18 45  1  0  0  0  0
 18 46  1  0  0  0  0
 19 47  1  0  0  0  0
 19 48  1  0  0  0  0
 19 49  1  0  0  0  0
M  END
> <PUBCHEM_COMPOUND_CID>
1711944

> <PUBCHEM_CONFORMER_RMSD>
1.2

> <PUBCHEM_CONFORMER_DIVERSEORDER>
12
144
190
204
210
115
1
199
131
200
140
15
81
105
91
168
80
8
180
71
198
125
50
123
111
183
205
98
85
151
99
119
76
145
116
124
89
11
193
27
175
181
70
22
169
154
135
63
195
3
178
47
100
160
176
213
113
103
112
214
152
149
186
17
2
165
179
38
155
177
201
202
20
104
150
164
173
127
34
46
96
51
64
102
206
158
170
167
106
61
16
217
192
101
129
132
162
121
203
14
97
24
9
62
79
143
56
172
77
6
197
88
207
31
110
138
171
21
174
134
90
73
126
13
133
19
66
37
92
49
142
30
153
157
156
41
74
65
188
78
166
83
209
189
23
93
42
60
159
196
33
43
122
55
194
107
29
5
147
58
215
40
128
148
94
84
18
184
10
53
28
57
32
130
4
25
82
212
45
44
36
86
54
118
68
120
95
69
141
67
191
161
146
52
39
59
163
26
216
7
211
109
187
72
108
117
35
75
139
48
182
218
114
136
137
185
87
208

> <PUBCHEM_MMFF94_PARTIAL_CHARGES>
22
1 -0.57
10 0.14
11 0.14
12 0.14
13 0.06
14 -0.29
15 -0.28
16 0.45
17 0.14
18 0.14
19 0.06
2 0.14
26 0.15
29 0.15
3 0.14
4 0.14
40 0.15
5 -0.28
6 -0.28
7 -0.29
8 0.14
9 -0.29

> <PUBCHEM_EFFECTIVE_ROTOR_COUNT>
9

> <PUBCHEM_PHARMACOPHORE_FEATURES>
6
1 1 acceptor
1 11 hydrophobe
1 12 hydrophobe
3 15 17 18 hydrophobe
4 2 3 6 7 hydrophobe
4 4 5 8 14 hydrophobe

> <PUBCHEM_HEAVY_ATOM_COUNT>
19

> <PUBCHEM_ATOM_DEF_STEREO_COUNT>
0

> <PUBCHEM_ATOM_UDEF_STEREO_COUNT>
0

> <PUBCHEM_BOND_DEF_STEREO_COUNT>
2

> <PUBCHEM_BOND_UDEF_STEREO_COUNT>
0

> <PUBCHEM_ISOTOPIC_ATOM_COUNT>
0

> <PUBCHEM_COMPONENT_COUNT>
1

> <PUBCHEM_CACTVS_TAUTO_COUNT>
3

> <PUBCHEM_CONFORMER_ID>
001A1F480000000C

> <PUBCHEM_MMFF94_ENERGY>
15.0837

> <PUBCHEM_FEATURE_SELFOVERLAP>
30.458

> <PUBCHEM_SHAPE_FINGERPRINT>
10871710 139 16896528087334234964
11221954 11 18263368147310156656
11725454 13 17967524688297418283
12633257 1 18114445826073988808
12769317 202 18411692171339578965
13103583 49 11531029730118059711
13134695 92 18048036277044580806
13761468 95 17332003858140503220
14251757 17 18192424174147783645
14251764 30 11314580962307285552
14251764 38 18337387244311625121
14468879 13 18117560840882787049
14957384 54 18264203793928626394
15342816 4 14404892566649379487
192875 21 18272370820097025626
20567600 299 18343579624985571593
20621476 13 18409443657286950429
21315763 76 18267007389465516757
21860390 5 18343022142809828980
238 59 18271814539910894362
474 4 18411697673340034011

> <PUBCHEM_SHAPE_MULTIPOLES>
385.14
9.22
4.42
1.78
10.27
2.22
-0.3
8.65
3.48
-4.73
0.11
0.79
-0.58
1.5

> <PUBCHEM_SHAPE_SELFOVERLAP>
726.676

> <PUBCHEM_SHAPE_VOLUME>
239.2

> <PUBCHEM_COORDINATE_TYPE>
2
5
10

$$$$
