177529483
  -OEChem-03052615053D

 74 77  0     1  0  0  0  0  0999 V2000
   -0.3670    1.6057    0.1690 O   0  0  0  0  0  0  0  0  0  0  0  0
   -0.7099    3.1945   -3.1127 O   0  0  0  0  0  0  0  0  0  0  0  0
    0.1987    0.7766   -3.3173 O   0  0  0  0  0  0  0  0  0  0  0  0
   -2.2653    4.9295   -1.3354 O   0  0  0  0  0  0  0  0  0  0  0  0
   -1.1277    5.0229    1.2911 O   0  0  0  0  0  0  0  0  0  0  0  0
   -2.3747    0.2825   -2.6528 O   0  0  0  0  0  0  0  0  0  0  0  0
    0.4996    1.3536    2.7561 O   0  0  0  0  0  0  0  0  0  0  0  0
    2.1320   -0.3617   -1.8831 O   0  0  0  0  0  0  0  0  0  0  0  0
   -1.0574   -2.4827    0.9425 O   0  0  0  0  0  0  0  0  0  0  0  0
    1.4325   -2.1996    1.7756 O   0  0  0  0  0  0  0  0  0  0  0  0
   -2.7859   -4.5094   -2.6739 O   0  0  0  0  0  0  0  0  0  0  0  0
   -3.5558   -2.4917   -3.3732 O   0  0  0  0  0  0  0  0  0  0  0  0
   -5.5128   -0.0856    4.3641 O   0  0  0  0  0  0  0  0  0  0  0  0
    9.3588    0.2030    0.0688 O   0  0  0  0  0  0  0  0  0  0  0  0
   -0.0715    1.8774   -1.2022 C   0  0  2  0  0  0  0  0  0  0  0  0
   -1.0879    2.8678   -1.7781 C   0  0  1  0  0  0  0  0  0  0  0  0
   -0.0953    0.5471   -1.9486 C   0  0  1  0  0  0  0  0  0  0  0  0
   -1.1419    4.1428   -0.9344 C   0  0  2  0  0  0  0  0  0  0  0  0
   -1.2987    3.8161    0.5521 C   0  0  1  0  0  0  0  0  0  0  0  0
   -0.2683    2.7706    0.9927 C   0  0  1  0  0  0  0  0  0  0  0  0
   -1.4860   -0.0553   -1.8700 C   0  0  0  0  0  0  0  0  0  0  0  0
    1.0002   -0.3456   -1.4033 C   0  0  0  0  0  0  0  0  0  0  0  0
   -0.4824    2.3216    2.4348 C   0  0  0  0  0  0  0  0  0  0  0  0
   -1.7735   -1.0518   -0.7884 C   0  0  0  0  0  0  0  0  0  0  0  0
   -3.2144   -1.4509   -0.6387 C   0  0  1  0  0  0  0  0  0  0  0  0
    0.6301   -1.1808   -0.2174 C   0  0  0  0  0  0  0  0  0  0  0  0
   -0.7702   -1.5418   -0.0362 C   0  0  0  0  0  0  0  0  0  0  0  0
   -3.4385   -2.9312   -0.9967 C   0  0  0  0  0  0  0  0  0  0  0  0
   -3.8310   -1.0846    0.7032 C   0  0  0  0  0  0  0  0  0  0  0  0
    1.6400   -1.4835    0.6142 C   0  0  0  0  0  0  0  0  0  0  0  0
   -3.8601   -2.0217    1.7360 C   0  0  0  0  0  0  0  0  0  0  0  0
   -4.3669    0.1879    0.9007 C   0  0  0  0  0  0  0  0  0  0  0  0
   -3.2778   -3.2637   -2.4641 C   0  0  0  0  0  0  0  0  0  0  0  0
    3.0084   -1.0806    0.3513 C   0  0  0  0  0  0  0  0  0  0  0  0
   -4.4252   -1.6862    2.9664 C   0  0  0  0  0  0  0  0  0  0  0  0
   -4.9320    0.5234    2.1310 C   0  0  0  0  0  0  0  0  0  0  0  0
   -4.9611   -0.4137    3.1639 C   0  0  0  0  0  0  0  0  0  0  0  0
    4.0609   -1.3514    1.1416 C   0  0  0  0  0  0  0  0  0  0  0  0
    5.4492   -0.9442    0.8609 C   0  0  0  0  0  0  0  0  0  0  0  0
    5.7031    0.0982   -0.0304 C   0  0  0  0  0  0  0  0  0  0  0  0
    6.5090   -1.6007    1.4865 C   0  0  0  0  0  0  0  0  0  0  0  0
    7.0170    0.4842   -0.2960 C   0  0  0  0  0  0  0  0  0  0  0  0
    7.8228   -1.2146    1.2209 C   0  0  0  0  0  0  0  0  0  0  0  0
    8.0768   -0.1722    0.3296 C   0  0  0  0  0  0  0  0  0  0  0  0
    0.9393    2.3054   -1.2727 H   0  0  0  0  0  0  0  0  0  0  0  0
   -2.1012    2.4595   -1.8094 H   0  0  0  0  0  0  0  0  0  0  0  0
   -0.2559    4.7645   -1.1091 H   0  0  0  0  0  0  0  0  0  0  0  0
   -2.3159    3.4540    0.7455 H   0  0  0  0  0  0  0  0  0  0  0  0
    0.7525    3.1678    0.9106 H   0  0  0  0  0  0  0  0  0  0  0  0
   -1.4647    1.8521    2.5543 H   0  0  0  0  0  0  0  0  0  0  0  0
   -0.3941    3.1600    3.1322 H   0  0  0  0  0  0  0  0  0  0  0  0
   -3.8275   -0.8998   -1.3641 H   0  0  0  0  0  0  0  0  0  0  0  0
    0.1726    3.6019   -3.0844 H   0  0  0  0  0  0  0  0  0  0  0  0
    0.9727    1.3627   -3.3724 H   0  0  0  0  0  0  0  0  0  0  0  0
   -3.0705    4.4029   -1.1945 H   0  0  0  0  0  0  0  0  0  0  0  0
   -0.2149    5.3303    1.1571 H   0  0  0  0  0  0  0  0  0  0  0  0
   -4.4647   -3.2328   -0.7462 H   0  0  0  0  0  0  0  0  0  0  0  0
   -2.7709   -3.5943   -0.4355 H   0  0  0  0  0  0  0  0  0  0  0  0
    0.3378    1.0735    3.6730 H   0  0  0  0  0  0  0  0  0  0  0  0
   -0.2378   -2.9127    1.2337 H   0  0  0  0  0  0  0  0  0  0  0  0
   -3.4634   -3.0252    1.6240 H   0  0  0  0  0  0  0  0  0  0  0  0
   -4.3463    0.9292    0.1061 H   0  0  0  0  0  0  0  0  0  0  0  0
    3.2503   -0.3364   -0.3724 H   0  0  0  0  0  0  0  0  0  0  0  0
    2.0322   -1.8749    2.4664 H   0  0  0  0  0  0  0  0  0  0  0  0
   -4.4436   -2.4255    3.7627 H   0  0  0  0  0  0  0  0  0  0  0  0
   -5.3462    1.5169    2.2793 H   0  0  0  0  0  0  0  0  0  0  0  0
    3.9601   -2.0170    1.9949 H   0  0  0  0  0  0  0  0  0  0  0  0
   -2.6850   -4.7072   -3.6294 H   0  0  0  0  0  0  0  0  0  0  0  0
   -5.4473   -0.8511    4.9605 H   0  0  0  0  0  0  0  0  0  0  0  0
    4.9268    0.6704   -0.5266 H   0  0  0  0  0  0  0  0  0  0  0  0
    6.3309   -2.4161    2.1833 H   0  0  0  0  0  0  0  0  0  0  0  0
    7.2094    1.3012   -0.9864 H   0  0  0  0  0  0  0  0  0  0  0  0
    8.6398   -1.7344    1.7143 H   0  0  0  0  0  0  0  0  0  0  0  0
    9.9625   -0.3570    0.5864 H   0  0  0  0  0  0  0  0  0  0  0  0
  1 15  1  0  0  0  0
  1 20  1  0  0  0  0
  2 16  1  0  0  0  0
  2 53  1  0  0  0  0
  3 17  1  0  0  0  0
  3 54  1  0  0  0  0
  4 18  1  0  0  0  0
  4 55  1  0  0  0  0
  5 19  1  0  0  0  0
  5 56  1  0  0  0  0
  6 21  2  0  0  0  0
  7 23  1  0  0  0  0
  7 59  1  0  0  0  0
  8 22  2  0  0  0  0
  9 27  1  0  0  0  0
  9 60  1  0  0  0  0
 10 30  1  0  0  0  0
 10 64  1  0  0  0  0
 11 33  1  0  0  0  0
 11 68  1  0  0  0  0
 12 33  2  0  0  0  0
 13 37  1  0  0  0  0
 13 69  1  0  0  0  0
 14 44  1  0  0  0  0
 14 74  1  0  0  0  0
 15 16  1  0  0  0  0
 15 17  1  0  0  0  0
 15 45  1  0  0  0  0
 16 18  1  0  0  0  0
 16 46  1  0  0  0  0
 17 21  1  0  0  0  0
 17 22  1  0  0  0  0
 18 19  1  0  0  0  0
 18 47  1  0  0  0  0
 19 20  1  0  0  0  0
 19 48  1  0  0  0  0
 20 23  1  0  0  0  0
 20 49  1  0  0  0  0
 21 24  1  0  0  0  0
 22 26  1  0  0  0  0
 23 50  1  0  0  0  0
 23 51  1  0  0  0  0
 24 25  1  0  0  0  0
 24 27  2  0  0  0  0
 25 28  1  0  0  0  0
 25 29  1  0  0  0  0
 25 52  1  0  0  0  0
 26 27  1  0  0  0  0
 26 30  2  0  0  0  0
 28 33  1  0  0  0  0
 28 57  1  0  0  0  0
 28 58  1  0  0  0  0
 29 31  2  0  0  0  0
 29 32  1  0  0  0  0
 30 34  1  0  0  0  0
 31 35  1  0  0  0  0
 31 61  1  0  0  0  0
 32 36  2  0  0  0  0
 32 62  1  0  0  0  0
 34 38  2  0  0  0  0
 34 63  1  0  0  0  0
 35 37  2  0  0  0  0
 35 65  1  0  0  0  0
 36 37  1  0  0  0  0
 36 66  1  0  0  0  0
 38 39  1  0  0  0  0
 38 67  1  0  0  0  0
 39 40  2  0  0  0  0
 39 41  1  0  0  0  0
 40 42  1  0  0  0  0
 40 70  1  0  0  0  0
 41 43  2  0  0  0  0
 41 71  1  0  0  0  0
 42 44  2  0  0  0  0
 42 72  1  0  0  0  0
 43 44  1  0  0  0  0
 43 73  1  0  0  0  0
M  END
> <PUBCHEM_COMPOUND_CID>
177529483

> <PUBCHEM_CONFORMER_RMSD>
1.2

> <PUBCHEM_CONFORMER_DIVERSEORDER>
1
22
21
23
10
26
19
3
13
8
6
24
28
20
25
15
16
7
18
17
11
4
27
9
2
14
12
5

> <PUBCHEM_MMFF94_PARTIAL_CHARGES>
63
1 -0.56
10 -0.53
11 -0.65
12 -0.57
13 -0.53
14 -0.53
15 0.28
16 0.28
17 0.4
18 0.28
19 0.28
2 -0.68
20 0.28
21 0.49
22 0.49
23 0.28
24 -0.12
25 0.28
27 0.08
28 0.06
29 -0.14
3 -0.68
30 0.08
31 -0.15
32 -0.15
33 0.66
34 -0.15
35 -0.15
36 -0.15
37 0.08
38 -0.18
39 0.03
4 -0.68
40 -0.15
41 -0.15
42 -0.15
43 -0.15
44 0.08
5 -0.68
53 0.4
54 0.4
55 0.4
56 0.4
59 0.4
6 -0.57
60 0.45
61 0.15
62 0.15
63 0.15
64 0.45
65 0.15
66 0.15
67 0.15
68 0.5
69 0.45
7 -0.68
70 0.15
71 0.15
72 0.15
73 0.15
74 0.45
8 -0.57
9 -0.53

> <PUBCHEM_EFFECTIVE_ROTOR_COUNT>
9.4

> <PUBCHEM_PHARMACOPHORE_FEATURES>
24
1 1 acceptor
1 10 donor
1 11 acceptor
1 12 acceptor
1 13 donor
1 14 donor
1 2 acceptor
1 2 donor
1 3 acceptor
1 3 donor
1 4 acceptor
1 4 donor
1 5 acceptor
1 5 donor
1 6 acceptor
1 7 acceptor
1 7 donor
1 8 acceptor
1 9 donor
3 11 12 33 anion
6 1 15 16 18 19 20 rings
6 17 21 22 24 26 27 rings
6 29 31 32 35 36 37 rings
6 39 40 41 42 43 44 rings

> <PUBCHEM_HEAVY_ATOM_COUNT>
44

> <PUBCHEM_ATOM_DEF_STEREO_COUNT>
5

> <PUBCHEM_ATOM_UDEF_STEREO_COUNT>
2

> <PUBCHEM_BOND_DEF_STEREO_COUNT>
2

> <PUBCHEM_BOND_UDEF_STEREO_COUNT>
0

> <PUBCHEM_ISOTOPIC_ATOM_COUNT>
0

> <PUBCHEM_COMPONENT_COUNT>
1

> <PUBCHEM_CACTVS_TAUTO_COUNT>
-1

> <PUBCHEM_CONFORMER_ID>
0A94E28B00000001

> <PUBCHEM_MMFF94_ENERGY>
144.5032

> <PUBCHEM_FEATURE_SELFOVERLAP>
121.94

> <PUBCHEM_SHAPE_MULTIPOLES>
823.33
15.18
4.97
3.69
43.9
5.67
0.17
-8.49
9.61
-5.93
-2.06
-6.52
-0.64
-1.78

> <PUBCHEM_SHAPE_SELFOVERLAP>
1792.366

> <PUBCHEM_SHAPE_VOLUME>
438.5

> <PUBCHEM_COORDINATE_TYPE>
2
5
10

$$$$
