177828252
  -OEChem-03052615053D

 44 47  0     1  0  0  0  0  0999 V2000
   -0.5237   -1.3261    0.5168 O   0  0  0  0  0  0  0  0  0  0  0  0
    1.3472    2.1488   -0.0048 O   0  0  0  0  0  0  0  0  0  0  0  0
   -3.2176   -2.4452    0.5043 O   0  0  0  0  0  0  0  0  0  0  0  0
   -4.4372   -0.5850   -1.1877 O   0  0  0  0  0  0  0  0  0  0  0  0
    5.4365   -0.0367   -0.9737 O   0  0  0  0  0  0  0  0  0  0  0  0
   -1.3322    0.7224   -0.3377 C   0  0  1  0  0  0  0  0  0  0  0  0
   -0.6030    1.0114    0.9743 C   0  0  1  0  0  0  0  0  0  0  0  0
   -1.6474   -0.7640   -0.1906 C   0  0  2  0  0  0  0  0  0  0  0  0
    0.1954   -0.2730    1.1867 C   0  0  2  0  0  0  0  0  0  0  0  0
   -2.5454    1.6054   -0.6278 C   0  0  0  0  0  0  0  0  0  0  0  0
   -2.9147   -1.0550    0.6228 C   0  0  1  0  0  0  0  0  0  0  0  0
   -4.1083   -0.2242    0.1539 C   0  0  1  0  0  0  0  0  0  0  0  0
   -3.7757    1.2654    0.2155 C   0  0  0  0  0  0  0  0  0  0  0  0
    0.3030    2.2336    0.9678 C   0  0  0  0  0  0  0  0  0  0  0  0
    1.5945   -0.1919    0.6332 C   0  0  0  0  0  0  0  0  0  0  0  0
    2.0855    0.9961    0.0757 C   0  0  0  0  0  0  0  0  0  0  0  0
    2.4296   -1.3182    0.6681 C   0  0  0  0  0  0  0  0  0  0  0  0
    3.3679    1.0436   -0.4769 C   0  0  0  0  0  0  0  0  0  0  0  0
    3.7172   -1.2645    0.1330 C   0  0  0  0  0  0  0  0  0  0  0  0
   -5.7736   -0.2286   -1.5046 C   0  0  0  0  0  0  0  0  0  0  0  0
    4.1838   -0.0858   -0.4441 C   0  0  0  0  0  0  0  0  0  0  0  0
    6.2181   -1.2286   -0.9042 C   0  0  0  0  0  0  0  0  0  0  0  0
   -0.6250    0.8433   -1.1696 H   0  0  0  0  0  0  0  0  0  0  0  0
   -1.3343    1.1174    1.7851 H   0  0  0  0  0  0  0  0  0  0  0  0
   -1.7014   -1.2581   -1.1675 H   0  0  0  0  0  0  0  0  0  0  0  0
    0.2536   -0.5133    2.2550 H   0  0  0  0  0  0  0  0  0  0  0  0
   -2.8098    1.4897   -1.6869 H   0  0  0  0  0  0  0  0  0  0  0  0
   -2.2899    2.6623   -0.4925 H   0  0  0  0  0  0  0  0  0  0  0  0
   -2.7279   -0.8703    1.6878 H   0  0  0  0  0  0  0  0  0  0  0  0
   -4.9603   -0.4504    0.8082 H   0  0  0  0  0  0  0  0  0  0  0  0
   -3.5937    1.5529    1.2580 H   0  0  0  0  0  0  0  0  0  0  0  0
   -4.6141    1.8785   -0.1296 H   0  0  0  0  0  0  0  0  0  0  0  0
   -0.2773    3.1345    0.7427 H   0  0  0  0  0  0  0  0  0  0  0  0
    0.7553    2.3879    1.9562 H   0  0  0  0  0  0  0  0  0  0  0  0
   -4.0204   -2.6154    1.0261 H   0  0  0  0  0  0  0  0  0  0  0  0
    2.0764   -2.2479    1.1078 H   0  0  0  0  0  0  0  0  0  0  0  0
    3.7348    1.9636   -0.9256 H   0  0  0  0  0  0  0  0  0  0  0  0
    4.2985   -2.1782    0.1956 H   0  0  0  0  0  0  0  0  0  0  0  0
   -6.4808   -0.6980   -0.8134 H   0  0  0  0  0  0  0  0  0  0  0  0
   -5.9126    0.8551   -1.5137 H   0  0  0  0  0  0  0  0  0  0  0  0
   -5.9900   -0.5995   -2.5107 H   0  0  0  0  0  0  0  0  0  0  0  0
    7.1835   -1.0096   -1.3722 H   0  0  0  0  0  0  0  0  0  0  0  0
    6.4233   -1.5153    0.1327 H   0  0  0  0  0  0  0  0  0  0  0  0
    5.7622   -2.0427   -1.4778 H   0  0  0  0  0  0  0  0  0  0  0  0
  1  8  1  0  0  0  0
  1  9  1  0  0  0  0
  2 14  1  0  0  0  0
  2 16  1  0  0  0  0
  3 11  1  0  0  0  0
  3 35  1  0  0  0  0
  4 12  1  0  0  0  0
  4 20  1  0  0  0  0
  5 21  1  0  0  0  0
  5 22  1  0  0  0  0
  6  7  1  0  0  0  0
  6  8  1  0  0  0  0
  6 10  1  0  0  0  0
  6 23  1  0  0  0  0
  7  9  1  0  0  0  0
  7 14  1  0  0  0  0
  7 24  1  0  0  0  0
  8 11  1  0  0  0  0
  8 25  1  0  0  0  0
  9 15  1  0  0  0  0
  9 26  1  0  0  0  0
 10 13  1  0  0  0  0
 10 27  1  0  0  0  0
 10 28  1  0  0  0  0
 11 12  1  0  0  0  0
 11 29  1  0  0  0  0
 12 13  1  0  0  0  0
 12 30  1  0  0  0  0
 13 31  1  0  0  0  0
 13 32  1  0  0  0  0
 14 33  1  0  0  0  0
 14 34  1  0  0  0  0
 15 16  2  0  0  0  0
 15 17  1  0  0  0  0
 16 18  1  0  0  0  0
 17 19  2  0  0  0  0
 17 36  1  0  0  0  0
 18 21  2  0  0  0  0
 18 37  1  0  0  0  0
 19 21  1  0  0  0  0
 19 38  1  0  0  0  0
 20 39  1  0  0  0  0
 20 40  1  0  0  0  0
 20 41  1  0  0  0  0
 22 42  1  0  0  0  0
 22 43  1  0  0  0  0
 22 44  1  0  0  0  0
M  END
> <PUBCHEM_COMPOUND_CID>
177828252

> <PUBCHEM_CONFORMER_RMSD>
0.6

> <PUBCHEM_CONFORMER_DIVERSEORDER>
1
19
5
57
63
62
42
55
60
28
46
26
59
3
13
20
30
45
16
22
23
14
24
40
43
33
27
10
32
2
58
54
11
35
25
49
53
56
18
50
36
61
37
12
44
31
38
51
29
17
47
34
39
8
41
15
6
9
7
4
52
21
48

> <PUBCHEM_MMFF94_PARTIAL_CHARGES>
22
1 -0.56
11 0.28
12 0.28
14 0.28
15 -0.14
16 0.08
17 -0.15
18 -0.15
19 -0.15
2 -0.36
20 0.28
21 0.08
22 0.28
3 -0.68
35 0.4
36 0.15
37 0.15
38 0.15
4 -0.56
5 -0.36
8 0.28
9 0.42

> <PUBCHEM_EFFECTIVE_ROTOR_COUNT>
3.4

> <PUBCHEM_PHARMACOPHORE_FEATURES>
10
1 1 acceptor
1 2 acceptor
1 3 acceptor
1 3 donor
1 4 acceptor
1 5 acceptor
5 1 6 7 8 9 rings
6 15 16 17 18 19 21 rings
6 2 7 9 14 15 16 rings
6 6 8 10 11 12 13 rings

> <PUBCHEM_HEAVY_ATOM_COUNT>
22

> <PUBCHEM_ATOM_DEF_STEREO_COUNT>
2

> <PUBCHEM_ATOM_UDEF_STEREO_COUNT>
4

> <PUBCHEM_BOND_DEF_STEREO_COUNT>
0

> <PUBCHEM_BOND_UDEF_STEREO_COUNT>
0

> <PUBCHEM_ISOTOPIC_ATOM_COUNT>
0

> <PUBCHEM_COMPONENT_COUNT>
1

> <PUBCHEM_CACTVS_TAUTO_COUNT>
-1

> <PUBCHEM_CONFORMER_ID>
0A99719C00000001

> <PUBCHEM_MMFF94_ENERGY>
79.8232

> <PUBCHEM_FEATURE_SELFOVERLAP>
51.164

> <PUBCHEM_SHAPE_MULTIPOLES>
423.4
11.42
1.98
1.12
4.3
0.29
-0.1
-4
-5.84
-0.3
0.33
-0.4
-0.04
0.14

> <PUBCHEM_SHAPE_SELFOVERLAP>
920.779

> <PUBCHEM_SHAPE_VOLUME>
230.3

> <PUBCHEM_COORDINATE_TYPE>
2
5
10

$$$$
