182406
  -OEChem-03052615063D

 45 48  0     0  0  0  0  0  0999 V2000
   -6.1753   -0.7519   -0.2236 O   0  0  0  0  0  0  0  0  0  0  0  0
   -4.4308   -2.8581    0.2587 O   0  0  0  0  0  0  0  0  0  0  0  0
    5.7577    0.7263    0.1228 O   0  0  0  0  0  0  0  0  0  0  0  0
    5.0744   -1.9085   -0.4336 O   0  0  0  0  0  0  0  0  0  0  0  0
   -0.2301    1.5040    0.3771 N   0  3  0  0  0  0  0  0  0  0  0  0
   -1.2402    2.5561    0.6572 C   0  0  0  0  0  0  0  0  0  0  0  0
   -2.4233    2.3950   -0.2781 C   0  0  0  0  0  0  0  0  0  0  0  0
   -0.6034    0.2159    0.1233 C   0  0  0  0  0  0  0  0  0  0  0  0
   -2.9617    0.9998   -0.1393 C   0  0  0  0  0  0  0  0  0  0  0  0
   -2.0525   -0.0574    0.0691 C   0  0  0  0  0  0  0  0  0  0  0  0
    1.0756    1.8539    0.4363 C   0  0  0  0  0  0  0  0  0  0  0  0
    0.3941   -0.7480   -0.1022 C   0  0  0  0  0  0  0  0  0  0  0  0
    2.0960    0.9285    0.2240 C   0  0  0  0  0  0  0  0  0  0  0  0
    1.7485   -0.4025   -0.0531 C   0  0  0  0  0  0  0  0  0  0  0  0
   -4.3389    0.7595   -0.2473 C   0  0  0  0  0  0  0  0  0  0  0  0
   -2.5846   -1.3522    0.2055 C   0  0  0  0  0  0  0  0  0  0  0  0
   -4.8358   -0.5331   -0.1181 C   0  0  0  0  0  0  0  0  0  0  0  0
   -3.9600   -1.5874    0.1142 C   0  0  0  0  0  0  0  0  0  0  0  0
    3.4509    1.2945    0.2812 C   0  0  0  0  0  0  0  0  0  0  0  0
    2.7657   -1.3473   -0.2730 C   0  0  0  0  0  0  0  0  0  0  0  0
    4.4509    0.3471    0.0622 C   0  0  0  0  0  0  0  0  0  0  0  0
    4.1085   -0.9730   -0.2152 C   0  0  0  0  0  0  0  0  0  0  0  0
   -7.0020    0.3861   -0.4622 C   0  0  0  0  0  0  0  0  0  0  0  0
    6.3601    1.1729   -1.0904 C   0  0  0  0  0  0  0  0  0  0  0  0
    5.5563   -2.6204    0.7044 C   0  0  0  0  0  0  0  0  0  0  0  0
   -0.7848    3.5417    0.5161 H   0  0  0  0  0  0  0  0  0  0  0  0
   -1.5184    2.4387    1.7116 H   0  0  0  0  0  0  0  0  0  0  0  0
   -2.1216    2.5574   -1.3196 H   0  0  0  0  0  0  0  0  0  0  0  0
   -3.1868    3.1386   -0.0240 H   0  0  0  0  0  0  0  0  0  0  0  0
    1.2836    2.8944    0.6634 H   0  0  0  0  0  0  0  0  0  0  0  0
    0.1224   -1.7756   -0.3332 H   0  0  0  0  0  0  0  0  0  0  0  0
   -4.9677    1.6250   -0.4284 H   0  0  0  0  0  0  0  0  0  0  0  0
   -1.9343   -2.2036    0.3938 H   0  0  0  0  0  0  0  0  0  0  0  0
    3.7305    2.3241    0.4974 H   0  0  0  0  0  0  0  0  0  0  0  0
    2.5113   -2.3830   -0.4911 H   0  0  0  0  0  0  0  0  0  0  0  0
   -5.3994   -2.8377    0.1682 H   0  0  0  0  0  0  0  0  0  0  0  0
   -6.7770    0.8532   -1.4271 H   0  0  0  0  0  0  0  0  0  0  0  0
   -6.9567    1.0993    0.3679 H   0  0  0  0  0  0  0  0  0  0  0  0
   -8.0353    0.0275   -0.5165 H   0  0  0  0  0  0  0  0  0  0  0  0
    6.3423    0.3797   -1.8444 H   0  0  0  0  0  0  0  0  0  0  0  0
    7.4013    1.4325   -0.8806 H   0  0  0  0  0  0  0  0  0  0  0  0
    5.8466    2.0627   -1.4684 H   0  0  0  0  0  0  0  0  0  0  0  0
    6.3240   -3.3231    0.3691 H   0  0  0  0  0  0  0  0  0  0  0  0
    4.7455   -3.1858    1.1745 H   0  0  0  0  0  0  0  0  0  0  0  0
    6.0039   -1.9324    1.4285 H   0  0  0  0  0  0  0  0  0  0  0  0
  1 17  1  0  0  0  0
  1 23  1  0  0  0  0
  2 18  1  0  0  0  0
  2 36  1  0  0  0  0
  3 21  1  0  0  0  0
  3 24  1  0  0  0  0
  4 22  1  0  0  0  0
  4 25  1  0  0  0  0
  5  6  1  0  0  0  0
  5  8  1  0  0  0  0
  5 11  2  0  0  0  0
  6  7  1  0  0  0  0
  6 26  1  0  0  0  0
  6 27  1  0  0  0  0
  7  9  1  0  0  0  0
  7 28  1  0  0  0  0
  7 29  1  0  0  0  0
  8 10  1  0  0  0  0
  8 12  2  0  0  0  0
  9 10  1  0  0  0  0
  9 15  2  0  0  0  0
 10 16  2  0  0  0  0
 11 13  1  0  0  0  0
 11 30  1  0  0  0  0
 12 14  1  0  0  0  0
 12 31  1  0  0  0  0
 13 14  1  0  0  0  0
 13 19  2  0  0  0  0
 14 20  2  0  0  0  0
 15 17  1  0  0  0  0
 15 32  1  0  0  0  0
 16 18  1  0  0  0  0
 16 33  1  0  0  0  0
 17 18  2  0  0  0  0
 19 21  1  0  0  0  0
 19 34  1  0  0  0  0
 20 22  1  0  0  0  0
 20 35  1  0  0  0  0
 21 22  2  0  0  0  0
 23 37  1  0  0  0  0
 23 38  1  0  0  0  0
 23 39  1  0  0  0  0
 24 40  1  0  0  0  0
 24 41  1  0  0  0  0
 24 42  1  0  0  0  0
 25 43  1  0  0  0  0
 25 44  1  0  0  0  0
 25 45  1  0  0  0  0
M  CHG  1   5   1
M  END
> <PUBCHEM_COMPOUND_CID>
182406

> <PUBCHEM_CONFORMER_RMSD>
0.6

> <PUBCHEM_CONFORMER_DIVERSEORDER>
4
1
5
3
2

> <PUBCHEM_MMFF94_PARTIAL_CHARGES>
29
1 -0.36
11 0.21
12 -0.15
15 -0.15
16 -0.15
17 0.08
18 0.08
19 -0.15
2 -0.53
20 -0.15
21 0.08
22 0.08
23 0.28
24 0.28
25 0.28
3 -0.36
30 0.15
31 0.15
32 0.15
33 0.15
34 0.15
35 0.15
36 0.45
4 -0.36
5 -0.21
6 0.49
7 0.14
8 0.36
9 -0.14

> <PUBCHEM_EFFECTIVE_ROTOR_COUNT>
3.4

> <PUBCHEM_PHARMACOPHORE_FEATURES>
8
1 1 acceptor
1 2 donor
1 3 acceptor
1 4 acceptor
6 13 14 19 20 21 22 rings
6 5 6 7 8 9 10 rings
6 5 8 11 12 13 14 rings
6 9 10 15 16 17 18 rings

> <PUBCHEM_HEAVY_ATOM_COUNT>
25

> <PUBCHEM_ATOM_DEF_STEREO_COUNT>
0

> <PUBCHEM_ATOM_UDEF_STEREO_COUNT>
0

> <PUBCHEM_BOND_DEF_STEREO_COUNT>
0

> <PUBCHEM_BOND_UDEF_STEREO_COUNT>
0

> <PUBCHEM_ISOTOPIC_ATOM_COUNT>
0

> <PUBCHEM_COMPONENT_COUNT>
1

> <PUBCHEM_CACTVS_TAUTO_COUNT>
3

> <PUBCHEM_CONFORMER_ID>
0002C88600000004

> <PUBCHEM_MMFF94_ENERGY>
107.9958

> <PUBCHEM_FEATURE_SELFOVERLAP>
40.681

> <PUBCHEM_SHAPE_FINGERPRINT>
10 15 18271230730235350936
10595046 47 18335424569407711644
10835480 77 18411128152087455325
10906281 52 18270982179965915861
11524674 6 16630806616989720439
11796584 16 17676203610619082331
11963148 33 18338510962756078382
12107183 9 17687743840314852136
12166972 35 17968099698450396508
12236239 1 17748824111681545097
12403259 226 18411694379264414888
12516196 113 18131349734882103617
12760667 363 18343299237146691819
12788726 201 18336261263233428025
13402501 40 18412826902084232615
13533116 47 18409727335993061362
13544653 18 18409174328350522153
13685833 64 18410577306015966787
13862211 1 18342452634694592607
14251764 18 18202286901434383849
14341114 176 18409170999729794703
14347332 77 18337104553758994859
15183329 4 18413110541450004595
15196674 1 18411982421335233104
15352361 1 18412262856792519705
15927050 60 17408521097220757380
16087824 20 18338798911124060853
17492 89 18268994198519141086
17844677 252 18337678520799500092
17857418 61 18413106160488481923
1813 80 17675923213621081997
18335252 98 18187936117626827075
19141452 34 18201719600505226263
200 152 17988923366559536025
20028762 73 18201153269922738358
21236236 1 18271526399741533009
21267235 1 18340773662721013230
21279426 13 18338514115065849197
21792934 111 18271793584586434353
221357 26 18341892982806679544
221490 88 18265899231746463417
22393880 68 18115298956660035052
23402539 116 18336260236556505807
23522609 53 18126315036468445737
23559900 14 18338228362549845777
2871803 45 18407757027787024355
3004659 81 18260829263830860586
329604 57 18412826876393387728
335352 9 18411417337484595061
34797466 226 17489592286078361244
350125 39 18412265046920398704
3545911 37 18410574002574186341
4073 2 18041565844425103250
4214541 1 18338797814566697424
4325135 7 18335142003414349588
465052 167 18202285818142724495
5104073 3 18200591402574434232
5283173 99 18262794069471537605
5486654 2 18411704322155324998
59755656 215 18412265038330178598
67856867 119 18115875268246743404
9709674 26 18335142050099852995

> <PUBCHEM_SHAPE_MULTIPOLES>
486.03
15.59
2.6
0.74
0.04
0.4
-0.03
4.77
-2.47
-0.35
0.36
-0.38
-0.08
-0.27

> <PUBCHEM_SHAPE_SELFOVERLAP>
1078.936

> <PUBCHEM_SHAPE_VOLUME>
261.6

> <PUBCHEM_COORDINATE_TYPE>
2
5
10

$$$$
