185847
  -OEChem-03052615073D

 51 52  0     1  0  0  0  0  0999 V2000
   -1.9076   -1.5559    0.1952 O   0  0  0  0  0  0  0  0  0  0  0  0
    0.9636    0.7643   -0.4348 O   0  0  0  0  0  0  0  0  0  0  0  0
    4.1652   -0.7770   -0.8176 O   0  0  0  0  0  0  0  0  0  0  0  0
    2.6352    1.5663    1.5405 O   0  0  0  0  0  0  0  0  0  0  0  0
    2.2671    0.2902   -2.2690 O   0  0  0  0  0  0  0  0  0  0  0  0
   -3.4654   -2.8501   -0.9162 O   0  0  0  0  0  0  0  0  0  0  0  0
   -3.0805    1.6815    0.9953 N   0  0  2  0  0  0  0  0  0  0  0  0
   -1.9548    0.8574    0.4566 C   0  0  1  0  0  0  0  0  0  0  0  0
   -2.6023   -0.3775   -0.1733 C   0  0  2  0  0  0  0  0  0  0  0  0
   -4.0102   -0.3786    0.3969 C   0  0  0  0  0  0  0  0  0  0  0  0
   -4.3250    1.1010    0.4683 C   0  0  0  0  0  0  0  0  0  0  0  0
   -1.2165    1.7479   -0.4963 C   0  0  0  0  0  0  0  0  0  0  0  0
   -2.8559    3.0607    0.5110 C   0  0  0  0  0  0  0  0  0  0  0  0
   -1.7263    2.9823   -0.4605 C   0  0  0  0  0  0  0  0  0  0  0  0
   -0.0579    1.2760   -1.2966 C   0  0  0  0  0  0  0  0  0  0  0  0
    3.1029   -0.2138   -0.0307 C   0  0  2  0  0  0  0  0  0  0  0  0
    2.5242   -1.3816    0.8236 C   0  0  0  0  0  0  0  0  0  0  0  0
    2.0847    0.2984   -1.0570 C   0  0  0  0  0  0  0  0  0  0  0  0
    3.6957    0.9580    0.7931 C   0  0  1  0  0  0  0  0  0  0  0  0
   -2.4495   -2.7346   -0.2441 C   0  0  0  0  0  0  0  0  0  0  0  0
    2.0058   -2.5445   -0.0392 C   0  0  0  0  0  0  0  0  0  0  0  0
    3.4752   -1.9312    1.8908 C   0  0  0  0  0  0  0  0  0  0  0  0
    4.3452    2.0500   -0.0539 C   0  0  0  0  0  0  0  0  0  0  0  0
   -1.6131   -3.8892    0.2179 C   0  0  0  0  0  0  0  0  0  0  0  0
   -1.2922    0.5821    1.2867 H   0  0  0  0  0  0  0  0  0  0  0  0
   -2.6348   -0.2954   -1.2683 H   0  0  0  0  0  0  0  0  0  0  0  0
   -4.7340   -0.8969   -0.2384 H   0  0  0  0  0  0  0  0  0  0  0  0
   -4.0413   -0.8432    1.3906 H   0  0  0  0  0  0  0  0  0  0  0  0
   -5.1721    1.3089    1.1286 H   0  0  0  0  0  0  0  0  0  0  0  0
   -4.5649    1.4701   -0.5375 H   0  0  0  0  0  0  0  0  0  0  0  0
   -3.7453    3.5025    0.0485 H   0  0  0  0  0  0  0  0  0  0  0  0
   -2.5678    3.6960    1.3557 H   0  0  0  0  0  0  0  0  0  0  0  0
   -1.3609    3.8233   -1.0316 H   0  0  0  0  0  0  0  0  0  0  0  0
   -0.3818    0.4854   -1.9832 H   0  0  0  0  0  0  0  0  0  0  0  0
    0.3577    2.1000   -1.8893 H   0  0  0  0  0  0  0  0  0  0  0  0
    1.6466   -0.9983    1.3620 H   0  0  0  0  0  0  0  0  0  0  0  0
    4.4574    0.5997    1.4937 H   0  0  0  0  0  0  0  0  0  0  0  0
    1.4944   -3.2808    0.5910 H   0  0  0  0  0  0  0  0  0  0  0  0
    2.8193   -3.0691   -0.5500 H   0  0  0  0  0  0  0  0  0  0  0  0
    1.2841   -2.2071   -0.7888 H   0  0  0  0  0  0  0  0  0  0  0  0
    4.4116   -2.2832    1.4461 H   0  0  0  0  0  0  0  0  0  0  0  0
    3.0189   -2.7733    2.4229 H   0  0  0  0  0  0  0  0  0  0  0  0
    3.7146   -1.1727    2.6416 H   0  0  0  0  0  0  0  0  0  0  0  0
    5.1667    1.6577   -0.6600 H   0  0  0  0  0  0  0  0  0  0  0  0
    4.7435    2.8386    0.5946 H   0  0  0  0  0  0  0  0  0  0  0  0
    3.6178    2.5361   -0.7126 H   0  0  0  0  0  0  0  0  0  0  0  0
    3.7885   -1.4092   -1.4518 H   0  0  0  0  0  0  0  0  0  0  0  0
   -1.2818   -3.7283    1.2474 H   0  0  0  0  0  0  0  0  0  0  0  0
   -0.7542   -4.0075   -0.4457 H   0  0  0  0  0  0  0  0  0  0  0  0
   -2.2161   -4.8015    0.1990 H   0  0  0  0  0  0  0  0  0  0  0  0
    2.3544    0.9333    2.2224 H   0  0  0  0  0  0  0  0  0  0  0  0
  1  9  1  0  0  0  0
  1 20  1  0  0  0  0
  2 15  1  0  0  0  0
  2 18  1  0  0  0  0
  3 16  1  0  0  0  0
  3 47  1  0  0  0  0
  4 19  1  0  0  0  0
  4 51  1  0  0  0  0
  5 18  2  0  0  0  0
  6 20  2  0  0  0  0
  7  8  1  0  0  0  0
  7 11  1  0  0  0  0
  7 13  1  0  0  0  0
  8  9  1  0  0  0  0
  8 12  1  0  0  0  0
  8 25  1  0  0  0  0
  9 10  1  0  0  0  0
  9 26  1  0  0  0  0
 10 11  1  0  0  0  0
 10 27  1  0  0  0  0
 10 28  1  0  0  0  0
 11 29  1  0  0  0  0
 11 30  1  0  0  0  0
 12 14  2  0  0  0  0
 12 15  1  0  0  0  0
 13 14  1  0  0  0  0
 13 31  1  0  0  0  0
 13 32  1  0  0  0  0
 14 33  1  0  0  0  0
 15 34  1  0  0  0  0
 15 35  1  0  0  0  0
 16 17  1  0  0  0  0
 16 18  1  0  0  0  0
 16 19  1  0  0  0  0
 17 21  1  0  0  0  0
 17 22  1  0  0  0  0
 17 36  1  0  0  0  0
 19 23  1  0  0  0  0
 19 37  1  0  0  0  0
 20 24  1  0  0  0  0
 21 38  1  0  0  0  0
 21 39  1  0  0  0  0
 21 40  1  0  0  0  0
 22 41  1  0  0  0  0
 22 42  1  0  0  0  0
 22 43  1  0  0  0  0
 23 44  1  0  0  0  0
 23 45  1  0  0  0  0
 23 46  1  0  0  0  0
 24 48  1  0  0  0  0
 24 49  1  0  0  0  0
 24 50  1  0  0  0  0
M  END
> <PUBCHEM_COMPOUND_CID>
185847

> <PUBCHEM_CONFORMER_RMSD>
1

> <PUBCHEM_CONFORMER_DIVERSEORDER>
1
202
143
5
16
80
117
166
191
195
49
63
171
89
78
109
175
164
120
189
200
43
193
196
182
93
198
51
24
106
59
160
45
161
118
56
113
27
169
41
125
159
62
123
122
28
31
188
150
145
135
141
134
178
183
91
139
70
44
155
186
101
14
181
12
58
149
100
131
40
110
115
156
185
179
136
72
144
99
33
146
19
37
9
124
104
66
140
48
54
184
153
73
105
30
60
38
128
86
35
55
114
2
119
126
111
152
64
142
168
53
23
162
194
22
170
157
102
79
201
151
148
81
92
190
172
75
83
204
116
71
173
36
138
199
65
77
176
69
15
17
26
97
167
61
42
47
20
192
112
57
130
158
87
197
39
177
10
165
68
180
90
67
18
205
3
137
34
52
74
98
154
132
29
82
6
76
94
4
108
85
127
203
32
121
46
8
163
174
96
103
95
7
133
107
13
187
11
25
129
84
50
21
88
147

> <PUBCHEM_MMFF94_PARTIAL_CHARGES>
22
1 -0.43
11 0.27
12 -0.28
13 0.41
14 -0.29
15 0.42
16 0.34
18 0.66
19 0.28
2 -0.43
20 0.66
24 0.06
3 -0.68
33 0.15
4 -0.68
47 0.4
5 -0.57
51 0.4
6 -0.57
7 -0.81
8 0.41
9 0.28

> <PUBCHEM_EFFECTIVE_ROTOR_COUNT>
8.8

> <PUBCHEM_PHARMACOPHORE_FEATURES>
10
1 3 acceptor
1 3 donor
1 4 acceptor
1 4 donor
1 5 acceptor
1 6 acceptor
1 7 cation
3 17 21 22 hydrophobe
5 7 8 12 13 14 rings
5 7 8 9 10 11 rings

> <PUBCHEM_HEAVY_ATOM_COUNT>
24

> <PUBCHEM_ATOM_DEF_STEREO_COUNT>
4

> <PUBCHEM_ATOM_UDEF_STEREO_COUNT>
0

> <PUBCHEM_BOND_DEF_STEREO_COUNT>
0

> <PUBCHEM_BOND_UDEF_STEREO_COUNT>
0

> <PUBCHEM_ISOTOPIC_ATOM_COUNT>
0

> <PUBCHEM_COMPONENT_COUNT>
1

> <PUBCHEM_CACTVS_TAUTO_COUNT>
1

> <PUBCHEM_CONFORMER_ID>
0002D5F700000001

> <PUBCHEM_MMFF94_ENERGY>
44.383

> <PUBCHEM_FEATURE_SELFOVERLAP>
51.121

> <PUBCHEM_SHAPE_FINGERPRINT>
10366900 7 17988635337178161305
10616163 171 18410858784528158262
1100329 8 16537073576696646944
11265709 11 18052540160487153399
11370993 70 18268702814566815475
11552529 35 17632014255647256655
11578080 2 17750778025797512797
12173636 292 18267582416824821925
12500047 106 18266458711377086340
12553582 1 18121234322501586743
12633257 1 18269829839797443762
12788726 201 18342451591049337483
13004483 165 18197759176453953039
13140716 1 18122635121811178937
13224815 77 17894349969097336408
14081887 123 18341322404948902488
14178342 30 18336825385385437538
14223421 5 18271238417382589780
14289901 80 18407759231448762280
14787075 74 17975690916139619812
16110190 28 17756696447992698146
18981168 100 15122929829316714300
19026451 147 16904951419839674151
20442098 301 18334576806807806228
21673915 165 18338233877044883810
21756936 100 17986093336058939520
23184049 29 18267872863871883661
23557571 272 18200318864817991218
23559900 14 18201446852369428228
23728640 28 18410301289689559779
339767 52 18041273352777838345
3797600 57 17916582188974574104
392239 28 17907009926494776792
463206 1 17475224078047667447
5048184 11 18339365149665761027
532947 4 16822763450091896261
58807428 26 18196109746124999449
602551 16 18412269406723154324
7064713 232 18194957435693958147
7097593 13 18335134237918331640
9709674 26 18273220776470073327

> <PUBCHEM_SHAPE_MULTIPOLES>
453.71
8.56
4.1
1.33
2.16
2.44
0.12
-0.84
-1.65
-2.75
-0.16
1.08
-0.07
-1.08

> <PUBCHEM_SHAPE_SELFOVERLAP>
931.308

> <PUBCHEM_SHAPE_VOLUME>
263.7

> <PUBCHEM_COORDINATE_TYPE>
2
5
10

$$$$
