189289
  -OEChem-03052615073D

 51 53  0     1  0  0  0  0  0999 V2000
    1.5493   -2.1714    0.0654 O   0  0  0  0  0  0  0  0  0  0  0  0
    3.8633   -0.8285    1.2430 O   0  0  0  0  0  0  0  0  0  0  0  0
    4.9570    1.9636    0.6340 O   0  0  0  0  0  0  0  0  0  0  0  0
   -2.7786   -0.2667   -0.1298 O   0  0  0  0  0  0  0  0  0  0  0  0
    5.1628    0.0107   -1.0246 O   0  0  0  0  0  0  0  0  0  0  0  0
    0.8240   -4.3473   -0.0633 O   0  0  0  0  0  0  0  0  0  0  0  0
   -3.6985    1.0281   -1.7950 O   0  0  0  0  0  0  0  0  0  0  0  0
   -3.6465    0.5376    2.3439 O   0  0  0  0  0  0  0  0  0  0  0  0
    1.7312    0.1765    0.6144 C   0  0  2  0  0  0  0  0  0  0  0  0
    1.2887    1.6602    0.4477 C   0  0  1  0  0  0  0  0  0  0  0  0
    3.2762    0.1859    0.4307 C   0  0  1  0  0  0  0  0  0  0  0  0
    0.9746   -0.8754   -0.2136 C   0  0  2  0  0  0  0  0  0  0  0  0
    3.6476    1.5636    0.9935 C   0  0  2  0  0  0  0  0  0  0  0  0
    2.5969    2.4771    0.3794 C   0  0  0  0  0  0  0  0  0  0  0  0
   -0.5088   -1.0210    0.1350 C   0  0  1  0  0  0  0  0  0  0  0  0
    0.2402    1.9157   -0.6151 C   0  0  0  0  0  0  0  0  0  0  0  0
   -1.4377   -0.0210   -0.5712 C   0  0  2  0  0  0  0  0  0  0  0  0
   -1.1497    1.4511   -0.2567 C   0  0  0  0  0  0  0  0  0  0  0  0
    3.7503   -0.0340   -1.0112 C   0  0  0  0  0  0  0  0  0  0  0  0
   -0.6879   -2.4666   -0.2308 C   0  0  0  0  0  0  0  0  0  0  0  0
    0.6138   -3.1484   -0.0795 C   0  0  0  0  0  0  0  0  0  0  0  0
    0.4443    2.5454   -1.7837 C   0  0  0  0  0  0  0  0  0  0  0  0
   -1.7479   -3.1471   -0.6761 C   0  0  0  0  0  0  0  0  0  0  0  0
   -3.7346    0.5300   -0.6786 C   0  0  0  0  0  0  0  0  0  0  0  0
   -4.8504    0.7149    0.2920 C   0  0  0  0  0  0  0  0  0  0  0  0
   -4.8025    0.0838    1.6519 C   0  0  0  0  0  0  0  0  0  0  0  0
   -5.8771    1.4832   -0.1019 C   0  0  0  0  0  0  0  0  0  0  0  0
    1.5580   -0.0917    1.6696 H   0  0  0  0  0  0  0  0  0  0  0  0
    0.8262    1.9529    1.4032 H   0  0  0  0  0  0  0  0  0  0  0  0
    1.1100   -0.6888   -1.2874 H   0  0  0  0  0  0  0  0  0  0  0  0
    3.5860    1.5696    2.0884 H   0  0  0  0  0  0  0  0  0  0  0  0
    2.8915    2.7556   -0.6360 H   0  0  0  0  0  0  0  0  0  0  0  0
    2.5151    3.4160    0.9390 H   0  0  0  0  0  0  0  0  0  0  0  0
   -0.6558   -0.9529    1.2222 H   0  0  0  0  0  0  0  0  0  0  0  0
   -1.3898   -0.1892   -1.6562 H   0  0  0  0  0  0  0  0  0  0  0  0
   -1.3353    1.6410    0.8097 H   0  0  0  0  0  0  0  0  0  0  0  0
   -1.8597    2.1194   -0.7570 H   0  0  0  0  0  0  0  0  0  0  0  0
    3.3591    0.7183   -1.7021 H   0  0  0  0  0  0  0  0  0  0  0  0
    3.4671   -1.0258   -1.3759 H   0  0  0  0  0  0  0  0  0  0  0  0
    3.5307   -1.6879    0.9325 H   0  0  0  0  0  0  0  0  0  0  0  0
    4.9900    2.1030   -0.3270 H   0  0  0  0  0  0  0  0  0  0  0  0
    1.4128    2.9119   -2.0971 H   0  0  0  0  0  0  0  0  0  0  0  0
   -0.3725    2.7003   -2.4824 H   0  0  0  0  0  0  0  0  0  0  0  0
    5.4471   -0.1308   -1.9436 H   0  0  0  0  0  0  0  0  0  0  0  0
   -2.7125   -2.6759   -0.8187 H   0  0  0  0  0  0  0  0  0  0  0  0
   -1.6866   -4.2042   -0.9144 H   0  0  0  0  0  0  0  0  0  0  0  0
   -4.7728   -1.0087    1.5804 H   0  0  0  0  0  0  0  0  0  0  0  0
   -5.6753    0.3522    2.2558 H   0  0  0  0  0  0  0  0  0  0  0  0
   -6.7195    1.6667    0.5580 H   0  0  0  0  0  0  0  0  0  0  0  0
   -5.9189    1.9510   -1.0798 H   0  0  0  0  0  0  0  0  0  0  0  0
   -2.8773    0.0776    1.9676 H   0  0  0  0  0  0  0  0  0  0  0  0
  1 12  1  0  0  0  0
  1 21  1  0  0  0  0
  2 11  1  0  0  0  0
  2 40  1  0  0  0  0
  3 13  1  0  0  0  0
  3 41  1  0  0  0  0
  4 17  1  0  0  0  0
  4 24  1  0  0  0  0
  5 19  1  0  0  0  0
  5 44  1  0  0  0  0
  6 21  2  0  0  0  0
  7 24  2  0  0  0  0
  8 26  1  0  0  0  0
  8 51  1  0  0  0  0
  9 10  1  0  0  0  0
  9 11  1  0  0  0  0
  9 12  1  0  0  0  0
  9 28  1  0  0  0  0
 10 14  1  0  0  0  0
 10 16  1  0  0  0  0
 10 29  1  0  0  0  0
 11 13  1  0  0  0  0
 11 19  1  0  0  0  0
 12 15  1  0  0  0  0
 12 30  1  0  0  0  0
 13 14  1  0  0  0  0
 13 31  1  0  0  0  0
 14 32  1  0  0  0  0
 14 33  1  0  0  0  0
 15 17  1  0  0  0  0
 15 20  1  0  0  0  0
 15 34  1  0  0  0  0
 16 18  1  0  0  0  0
 16 22  2  0  0  0  0
 17 18  1  0  0  0  0
 17 35  1  0  0  0  0
 18 36  1  0  0  0  0
 18 37  1  0  0  0  0
 19 38  1  0  0  0  0
 19 39  1  0  0  0  0
 20 21  1  0  0  0  0
 20 23  2  0  0  0  0
 22 42  1  0  0  0  0
 22 43  1  0  0  0  0
 23 45  1  0  0  0  0
 23 46  1  0  0  0  0
 24 25  1  0  0  0  0
 25 26  1  0  0  0  0
 25 27  2  0  0  0  0
 26 47  1  0  0  0  0
 26 48  1  0  0  0  0
 27 49  1  0  0  0  0
 27 50  1  0  0  0  0
M  END
> <PUBCHEM_COMPOUND_CID>
189289

> <PUBCHEM_CONFORMER_RMSD>
0.8

> <PUBCHEM_CONFORMER_DIVERSEORDER>
2
28
24
50
46
30
48
40
56
7
26
16
45
17
57
38
42
41
20
34
39
47
15
25
22
55
53
49
43
23
11
27
14
4
33
8
44
19
13
52
21
59
51
6
12
36
1
32
29
54
58
18
37
31
10
9
35
5
3

> <PUBCHEM_MMFF94_PARTIAL_CHARGES>
35
1 -0.43
10 0.14
11 0.28
12 0.28
13 0.28
15 0.14
16 -0.28
17 0.28
18 0.14
19 0.28
2 -0.68
20 -0.12
21 0.71
22 -0.3
23 -0.3
24 0.71
25 -0.12
26 0.42
27 -0.3
3 -0.68
4 -0.43
40 0.4
41 0.4
42 0.15
43 0.15
44 0.4
45 0.15
46 0.15
49 0.15
5 -0.68
50 0.15
51 0.4
6 -0.57
7 -0.57
8 -0.68

> <PUBCHEM_EFFECTIVE_ROTOR_COUNT>
6.2

> <PUBCHEM_PHARMACOPHORE_FEATURES>
14
1 2 acceptor
1 2 donor
1 27 hydrophobe
1 3 acceptor
1 3 donor
1 5 acceptor
1 5 donor
1 6 acceptor
1 7 acceptor
1 8 acceptor
1 8 donor
5 1 12 15 20 21 rings
5 9 10 11 13 14 rings
7 9 10 12 15 16 17 18 rings

> <PUBCHEM_HEAVY_ATOM_COUNT>
27

> <PUBCHEM_ATOM_DEF_STEREO_COUNT>
7

> <PUBCHEM_ATOM_UDEF_STEREO_COUNT>
0

> <PUBCHEM_BOND_DEF_STEREO_COUNT>
0

> <PUBCHEM_BOND_UDEF_STEREO_COUNT>
0

> <PUBCHEM_ISOTOPIC_ATOM_COUNT>
0

> <PUBCHEM_COMPONENT_COUNT>
1

> <PUBCHEM_CACTVS_TAUTO_COUNT>
1

> <PUBCHEM_CONFORMER_ID>
0002E36900000002

> <PUBCHEM_MMFF94_ENERGY>
91.1315

> <PUBCHEM_FEATURE_SELFOVERLAP>
71.132

> <PUBCHEM_SHAPE_FINGERPRINT>
10411042 1 17547850759499868191
10493431 412 18339920519118066193
10967382 1 18338786815392907230
1100329 8 18339920527855804320
12011746 2 18409454656592239292
12035758 1 18411697699574133280
12236239 1 17632574942754377429
12390115 104 18198070368029283592
12422481 6 18191002552793808882
12592029 89 18410571756459141659
12596602 18 17632576072320142441
12633257 1 18342447158658574776
12788726 201 17694774516799995591
13140716 1 18338508750461805330
13544592 145 18343869926778867436
13583140 156 16589124148102144189
138480 1 17835796396309222527
14178342 30 17689136225705000504
14790565 3 18410864256375093868
14955137 171 18261690241074341005
1601671 61 18334861597309527868
16945 1 18341325622111450468
17138139 8 17485048077566733055
19591789 44 18339078168926079166
20028762 73 18200869681890430223
20261772 1 18334295404729560121
20642791 13 17981593085920074982
20691752 17 17750497646136830804
20739085 24 18334303028259983412
20775438 99 14888150316701296351
21033648 29 18340472435596644177
22182313 1 18115862993419719293
23184049 59 18407758148879295385
2334 1 18121770901155097174
23558518 356 17685208774275368224
23559900 14 17831564389059964943
2748010 2 18265605679543249414
3178227 256 18337684043853078184
335352 9 18412541007839161422
350125 39 18192990427151899966
404807 14 14398767037047029588
465052 167 17604158090166596761
474 4 18271804601636308803
5104073 3 18194385913761488976
59755656 215 18337953385996025093
633830 44 18131628997628916613
70251023 43 17761776165969352275

> <PUBCHEM_SHAPE_MULTIPOLES>
508.69
9.79
3.64
1.36
5.37
3.88
0.18
-5.46
1.96
-1.1
-0.63
0.73
-0.57
0.29

> <PUBCHEM_SHAPE_SELFOVERLAP>
1083.968

> <PUBCHEM_SHAPE_VOLUME>
281.7

> <PUBCHEM_COORDINATE_TYPE>
2
5
10

$$$$
