10183133
  -OEChem-02172602523D

 57 61  0     1  0  0  0  0  0999 V2000
   -7.7954   -2.1659   -2.3853 Cl  0  0  0  0  0  0  0  0  0  0  0  0
   -1.4360    4.8711   -1.2540 O   0  0  0  0  0  0  0  0  0  0  0  0
   -3.3399   -1.3291   -0.0737 O   0  0  0  0  0  0  0  0  0  0  0  0
    2.0176    2.0749   -0.0640 N   0  0  0  0  0  0  0  0  0  0  0  0
    3.1783   -0.0330   -0.0751 N   0  0  0  0  0  0  0  0  0  0  0  0
   -0.2958   -1.9115    0.7767 N   0  0  0  0  0  0  0  0  0  0  0  0
    2.0647   -2.1558    0.3502 N   0  0  0  0  0  0  0  0  0  0  0  0
   -1.7778    5.9099    0.7688 N   0  0  0  0  0  0  0  0  0  0  0  0
    1.2707    4.2734   -0.4692 C   0  0  1  0  0  0  0  0  0  0  0  0
    2.7532    4.3081   -0.1115 C   0  0  0  0  0  0  0  0  0  0  0  0
    0.8246    2.9092    0.0713 C   0  0  0  0  0  0  0  0  0  0  0  0
    3.2031    2.8718   -0.3703 C   0  0  0  0  0  0  0  0  0  0  0  0
    0.4857    5.4356    0.1121 C   0  0  0  0  0  0  0  0  0  0  0  0
    2.0216    0.7030    0.0721 C   0  0  0  0  0  0  0  0  0  0  0  0
    0.8468   -0.0380    0.3708 C   0  0  0  0  0  0  0  0  0  0  0  0
   -0.9903    5.3623   -0.2211 C   0  0  0  0  0  0  0  0  0  0  0  0
    0.9493   -1.4186    0.4894 C   0  0  0  0  0  0  0  0  0  0  0  0
   -0.5127    0.2969    0.5973 C   0  0  0  0  0  0  0  0  0  0  0  0
   -1.1931   -0.8765    0.8444 C   0  0  0  0  0  0  0  0  0  0  0  0
    3.1286   -1.3765    0.0689 C   0  0  0  0  0  0  0  0  0  0  0  0
   -2.6177   -1.1177    1.1399 C   0  0  0  0  0  0  0  0  0  0  0  0
    4.3819   -2.0681   -0.1012 C   0  0  0  0  0  0  0  0  0  0  0  0
    4.4017   -3.3766   -0.5917 C   0  0  0  0  0  0  0  0  0  0  0  0
    5.5842   -1.4340    0.2233 C   0  0  0  0  0  0  0  0  0  0  0  0
    5.6144   -4.0459   -0.7565 C   0  0  0  0  0  0  0  0  0  0  0  0
    6.7970   -2.1031    0.0586 C   0  0  0  0  0  0  0  0  0  0  0  0
   -4.6906   -1.5098    0.0420 C   0  0  0  0  0  0  0  0  0  0  0  0
    6.8120   -3.4091   -0.4313 C   0  0  0  0  0  0  0  0  0  0  0  0
   -5.4602   -1.7206   -1.0981 C   0  0  0  0  0  0  0  0  0  0  0  0
   -5.2857   -1.4809    1.2996 C   0  0  0  0  0  0  0  0  0  0  0  0
   -6.8377   -1.9043   -0.9795 C   0  0  0  0  0  0  0  0  0  0  0  0
   -6.6632   -1.6646    1.4183 C   0  0  0  0  0  0  0  0  0  0  0  0
   -7.4392   -1.8764    0.2787 C   0  0  0  0  0  0  0  0  0  0  0  0
    1.1753    4.2697   -1.5643 H   0  0  0  0  0  0  0  0  0  0  0  0
    3.3177    5.0316   -0.7071 H   0  0  0  0  0  0  0  0  0  0  0  0
    2.8923    4.5560    0.9482 H   0  0  0  0  0  0  0  0  0  0  0  0
    0.5115    2.9704    1.1193 H   0  0  0  0  0  0  0  0  0  0  0  0
    0.0101    2.5665   -0.5721 H   0  0  0  0  0  0  0  0  0  0  0  0
    4.0553    2.6114    0.2661 H   0  0  0  0  0  0  0  0  0  0  0  0
    3.4837    2.7334   -1.4205 H   0  0  0  0  0  0  0  0  0  0  0  0
    0.6176    5.4701    1.2006 H   0  0  0  0  0  0  0  0  0  0  0  0
    0.8651    6.3831   -0.2887 H   0  0  0  0  0  0  0  0  0  0  0  0
   -1.0030    1.2567    0.6156 H   0  0  0  0  0  0  0  0  0  0  0  0
   -0.5154   -2.8882    0.9154 H   0  0  0  0  0  0  0  0  0  0  0  0
   -2.7883    5.9273    0.6785 H   0  0  0  0  0  0  0  0  0  0  0  0
   -1.3911    6.3196    1.6130 H   0  0  0  0  0  0  0  0  0  0  0  0
   -2.9997   -0.2297    1.6610 H   0  0  0  0  0  0  0  0  0  0  0  0
   -2.7026   -1.9972    1.7917 H   0  0  0  0  0  0  0  0  0  0  0  0
    3.4872   -3.8981   -0.8646 H   0  0  0  0  0  0  0  0  0  0  0  0
    5.6072   -0.4205    0.6170 H   0  0  0  0  0  0  0  0  0  0  0  0
    5.6267   -5.0620   -1.1401 H   0  0  0  0  0  0  0  0  0  0  0  0
    7.7297   -1.6084    0.3137 H   0  0  0  0  0  0  0  0  0  0  0  0
    7.7563   -3.9301   -0.5596 H   0  0  0  0  0  0  0  0  0  0  0  0
   -4.9821   -1.7407   -2.0744 H   0  0  0  0  0  0  0  0  0  0  0  0
   -4.7492   -1.3266    2.2289 H   0  0  0  0  0  0  0  0  0  0  0  0
   -7.1327   -1.6442    2.3976 H   0  0  0  0  0  0  0  0  0  0  0  0
   -8.5115   -2.0183    0.3864 H   0  0  0  0  0  0  0  0  0  0  0  0
  1 31  1  0  0  0  0
  2 16  2  0  0  0  0
  3 21  1  0  0  0  0
  3 27  1  0  0  0  0
  4 11  1  0  0  0  0
  4 12  1  0  0  0  0
  4 14  1  0  0  0  0
  5 14  2  0  0  0  0
  5 20  1  0  0  0  0
  6 17  1  0  0  0  0
  6 19  1  0  0  0  0
  6 44  1  0  0  0  0
  7 17  1  0  0  0  0
  7 20  2  0  0  0  0
  8 16  1  0  0  0  0
  8 45  1  0  0  0  0
  8 46  1  0  0  0  0
  9 10  1  0  0  0  0
  9 11  1  0  0  0  0
  9 13  1  0  0  0  0
  9 34  1  0  0  0  0
 10 12  1  0  0  0  0
 10 35  1  0  0  0  0
 10 36  1  0  0  0  0
 11 37  1  0  0  0  0
 11 38  1  0  0  0  0
 12 39  1  0  0  0  0
 12 40  1  0  0  0  0
 13 16  1  0  0  0  0
 13 41  1  0  0  0  0
 13 42  1  0  0  0  0
 14 15  1  0  0  0  0
 15 17  2  0  0  0  0
 15 18  1  0  0  0  0
 18 19  2  0  0  0  0
 18 43  1  0  0  0  0
 19 21  1  0  0  0  0
 20 22  1  0  0  0  0
 21 47  1  0  0  0  0
 21 48  1  0  0  0  0
 22 23  2  0  0  0  0
 22 24  1  0  0  0  0
 23 25  1  0  0  0  0
 23 49  1  0  0  0  0
 24 26  2  0  0  0  0
 24 50  1  0  0  0  0
 25 28  2  0  0  0  0
 25 51  1  0  0  0  0
 26 28  1  0  0  0  0
 26 52  1  0  0  0  0
 27 29  2  0  0  0  0
 27 30  1  0  0  0  0
 28 53  1  0  0  0  0
 29 31  1  0  0  0  0
 29 54  1  0  0  0  0
 30 32  2  0  0  0  0
 30 55  1  0  0  0  0
 31 33  2  0  0  0  0
 32 33  1  0  0  0  0
 32 56  1  0  0  0  0
 33 57  1  0  0  0  0
M  END
> <PUBCHEM_COMPOUND_CID>
10183133

> <PUBCHEM_CONFORMER_RMSD>
1

> <PUBCHEM_CONFORMER_DIVERSEORDER>
1
103
87
200
182
147
224
144
298
206
10
104
112
127
134
65
273
208
81
285
262
247
76
111
23
18
158
40
136
231
157
133
164
261
291
45
141
73
102
129
171
184
149
75
286
284
66
124
21
213
35
121
154
156
152
243
52
288
56
198
82
289
117
67
203
254
170
160
90
201
270
268
30
48
176
227
11
287
17
245
161
33
50
29
238
169
135
93
7
70
228
120
163
281
126
55
269
8
197
212
199
166
12
85
279
132
72
299
210
188
137
42
159
218
25
240
256
145
174
196
119
191
130
181
211
59
244
217
53
64
46
101
180
267
110
234
204
221
54
276
248
255
225
257
194
32
24
207
209
63
44
226
125
142
95
27
68
62
294
229
80
178
71
167
186
9
92
251
108
86
123
165
16
57
177
78
20
116
220
266
236
3
195
39
172
139
74
290
205
51
98
140
6
146
242
28
183
292
173
115
118
253
230
84
193
189
26
233
215
37
271
114
15
60
250
216
91
258
277
36
88
89
2
175
34
100
153
113
13
179
232
122
190
138
43
77
239
143
275
99
131
150
83
297
237
97
107
296
38
192
162
202
293
278
58
128
49
265
61
105
14
214
148
168
263
96
22
283
223
235
69
151
249
155
219
272
19
79
47
31
246
94
106
252
4
222
185
109
5
41
264
282
295
187
241
274
259
280
260

> <PUBCHEM_MMFF94_PARTIAL_CHARGES>
42
1 -0.18
11 0.37
12 0.37
13 0.06
14 0.41
16 0.57
17 0.11
18 -0.15
19 -0.33
2 -0.57
20 0.62
21 0.46
23 -0.15
24 -0.15
25 -0.15
26 -0.15
27 0.08
28 -0.15
29 -0.15
3 -0.36
30 -0.15
31 0.18
32 -0.15
33 -0.15
4 -0.84
43 0.15
44 0.27
45 0.37
46 0.37
49 0.15
5 -0.62
50 0.15
51 0.15
52 0.15
53 0.15
54 0.15
55 0.15
56 0.15
57 0.15
6 0.03
7 -0.57
8 -0.8

> <PUBCHEM_EFFECTIVE_ROTOR_COUNT>
8

> <PUBCHEM_PHARMACOPHORE_FEATURES>
12
1 2 acceptor
1 3 acceptor
1 6 cation
1 6 donor
1 8 donor
3 4 5 14 cation
3 5 7 20 cation
5 4 9 10 11 12 rings
5 6 15 17 18 19 rings
6 22 23 24 25 26 28 rings
6 27 29 30 31 32 33 rings
6 5 7 14 15 17 20 rings

> <PUBCHEM_HEAVY_ATOM_COUNT>
33

> <PUBCHEM_ATOM_DEF_STEREO_COUNT>
1

> <PUBCHEM_ATOM_UDEF_STEREO_COUNT>
0

> <PUBCHEM_BOND_DEF_STEREO_COUNT>
0

> <PUBCHEM_BOND_UDEF_STEREO_COUNT>
0

> <PUBCHEM_ISOTOPIC_ATOM_COUNT>
0

> <PUBCHEM_COMPONENT_COUNT>
1

> <PUBCHEM_CACTVS_TAUTO_COUNT>
6

> <PUBCHEM_CONFORMER_ID>
009B61DD00000001

> <PUBCHEM_MMFF94_ENERGY>
97.7339

> <PUBCHEM_FEATURE_SELFOVERLAP>
61.117

> <PUBCHEM_SHAPE_FINGERPRINT>
10411042 1 18410016494666257970
11297750 10 18342166727628170208
11331351 85 18342177735043552983
11386260 185 18336814395128734095
11991303 11 17467647996286431372
12166972 35 18272653449913582547
12342043 65 17244173675560346811
13590594 115 18410018697562228105
13835254 42 18339079277496997138
14068700 675 18130790035976598978
14556957 393 18045530576481757134
15021287 119 18341060648942871843
15082195 135 17908128130258321311
15198563 99 18265617584844441348
15320294 125 16845281757698795975
15400415 2 17257939719980473281
15419008 47 17894345579899204031
15444296 8 18270678649941868245
15483637 11 18192995911572435964
15979999 66 18409445907717308500
16988056 13 18263357148131553165
18365409 1 17903641778460359701
18681886 176 18411694396201723851
19301679 30 18408597047019591040
19311894 1 18049161064338154556
21792938 79 15287652012817775070
23522609 53 17629509599168011971
23559900 14 18336548334257398947
24771293 8 18343864442269252058
24771750 20 17466243232643163604
249057 25 17846510253081271923
255183 451 18413672408966315422
3103668 31 18117840997769352525
3383291 50 16536513264491618210
3534868 343 18190196615725739894
376196 1 17540530653299282361
4015057 19 18263089954190101451
4046055 4 18262810540760424844
4066623 53 18334017202708178212
4403749 210 10087334726357249351
44317340 157 18193839473910558127
4461854 278 17620493311288790665
58902169 19 18201994474491951183
59521099 67 18342451586881276313
5969126 39 18339079277064902462
6004065 56 18409449219749796226
6697151 62 18335690668022188563
6700243 42 17771375005342203438
9962374 69 18341887550132687639

> <PUBCHEM_SHAPE_MULTIPOLES>
644.35
18.41
8.42
1.19
23.64
18.44
0.32
-30.31
4.81
-6.77
1.54
2.66
-0.6
-0.12

> <PUBCHEM_SHAPE_SELFOVERLAP>
1408.295

> <PUBCHEM_SHAPE_VOLUME>
351.1

> <PUBCHEM_COORDINATE_TYPE>
2
5
10

$$$$
