12304220
  -OEChem-02172602353D

 42 43  0     1  0  0  0  0  0999 V2000
    0.5022    1.2512    1.6454 O   0  0  0  0  0  0  0  0  0  0  0  0
   -0.4168    0.7233    0.6810 C   0  0  2  0  0  0  0  0  0  0  0  0
    0.0371   -0.7324    0.3501 C   0  0  2  0  0  0  0  0  0  0  0  0
    1.3340   -0.8001   -0.5046 C   0  0  1  0  0  0  0  0  0  0  0  0
   -0.4207    1.6368   -0.5843 C   0  0  2  0  0  0  0  0  0  0  0  0
    1.2778    0.1401   -1.7140 C   0  0  0  0  0  0  0  0  0  0  0  0
    0.9200    1.5718   -1.3326 C   0  0  0  0  0  0  0  0  0  0  0  0
   -1.7963    0.6509    1.3716 C   0  0  0  0  0  0  0  0  0  0  0  0
    2.5985   -0.5507    0.3290 C   0  0  0  0  0  0  0  0  0  0  0  0
   -1.0751   -1.5384   -0.2966 C   0  0  0  0  0  0  0  0  0  0  0  0
   -2.8694    0.0069    0.4944 C   0  0  0  0  0  0  0  0  0  0  0  0
   -0.7466    3.1062   -0.2853 C   0  0  0  0  0  0  0  0  0  0  0  0
   -2.3777   -1.2083   -0.2475 C   0  0  0  0  0  0  0  0  0  0  0  0
    2.6195   -1.4694    1.5448 C   0  0  0  0  0  0  0  0  0  0  0  0
    3.8437   -0.7521   -0.5265 C   0  0  0  0  0  0  0  0  0  0  0  0
   -3.4303   -2.0357   -0.9248 C   0  0  0  0  0  0  0  0  0  0  0  0
    0.1992   -1.2623    1.2938 H   0  0  0  0  0  0  0  0  0  0  0  0
    1.4219   -1.8211   -0.9058 H   0  0  0  0  0  0  0  0  0  0  0  0
   -1.1884    1.2790   -1.2823 H   0  0  0  0  0  0  0  0  0  0  0  0
    0.5041   -0.2301   -2.4009 H   0  0  0  0  0  0  0  0  0  0  0  0
    2.1967    0.1289   -2.3057 H   0  0  0  0  0  0  0  0  0  0  0  0
    1.7200    2.0179   -0.7306 H   0  0  0  0  0  0  0  0  0  0  0  0
    0.8560    2.1700   -2.2503 H   0  0  0  0  0  0  0  0  0  0  0  0
   -2.1251    1.6417    1.7058 H   0  0  0  0  0  0  0  0  0  0  0  0
   -1.7014    0.0687    2.2999 H   0  0  0  0  0  0  0  0  0  0  0  0
    2.6354    0.4794    0.6979 H   0  0  0  0  0  0  0  0  0  0  0  0
   -0.7859   -2.4527   -0.8100 H   0  0  0  0  0  0  0  0  0  0  0  0
   -3.2438    0.7386   -0.2315 H   0  0  0  0  0  0  0  0  0  0  0  0
   -3.7178   -0.2680    1.1328 H   0  0  0  0  0  0  0  0  0  0  0  0
   -0.0293    3.5425    0.4174 H   0  0  0  0  0  0  0  0  0  0  0  0
   -0.7196    3.7030   -1.2037 H   0  0  0  0  0  0  0  0  0  0  0  0
   -1.7495    3.2137    0.1377 H   0  0  0  0  0  0  0  0  0  0  0  0
    0.4633    0.6958    2.4423 H   0  0  0  0  0  0  0  0  0  0  0  0
    2.3718   -2.5031    1.2803 H   0  0  0  0  0  0  0  0  0  0  0  0
    3.6171   -1.4824    1.9994 H   0  0  0  0  0  0  0  0  0  0  0  0
    1.9442   -1.1326    2.3361 H   0  0  0  0  0  0  0  0  0  0  0  0
    3.8150   -1.7026   -1.0699 H   0  0  0  0  0  0  0  0  0  0  0  0
    4.7443   -0.7597    0.0985 H   0  0  0  0  0  0  0  0  0  0  0  0
    3.9870    0.0591   -1.2460 H   0  0  0  0  0  0  0  0  0  0  0  0
   -4.1449   -2.4182   -0.1890 H   0  0  0  0  0  0  0  0  0  0  0  0
   -3.0046   -2.8946   -1.4542 H   0  0  0  0  0  0  0  0  0  0  0  0
   -3.9747   -1.4301   -1.6566 H   0  0  0  0  0  0  0  0  0  0  0  0
  1  2  1  0  0  0  0
  1 33  1  0  0  0  0
  2  3  1  0  0  0  0
  2  5  1  0  0  0  0
  2  8  1  0  0  0  0
  3  4  1  0  0  0  0
  3 10  1  0  0  0  0
  3 17  1  0  0  0  0
  4  6  1  0  0  0  0
  4  9  1  0  0  0  0
  4 18  1  0  0  0  0
  5  7  1  0  0  0  0
  5 12  1  0  0  0  0
  5 19  1  0  0  0  0
  6  7  1  0  0  0  0
  6 20  1  0  0  0  0
  6 21  1  0  0  0  0
  7 22  1  0  0  0  0
  7 23  1  0  0  0  0
  8 11  1  0  0  0  0
  8 24  1  0  0  0  0
  8 25  1  0  0  0  0
  9 14  1  0  0  0  0
  9 15  1  0  0  0  0
  9 26  1  0  0  0  0
 10 13  2  0  0  0  0
 10 27  1  0  0  0  0
 11 13  1  0  0  0  0
 11 28  1  0  0  0  0
 11 29  1  0  0  0  0
 12 30  1  0  0  0  0
 12 31  1  0  0  0  0
 12 32  1  0  0  0  0
 13 16  1  0  0  0  0
 14 34  1  0  0  0  0
 14 35  1  0  0  0  0
 14 36  1  0  0  0  0
 15 37  1  0  0  0  0
 15 38  1  0  0  0  0
 15 39  1  0  0  0  0
 16 40  1  0  0  0  0
 16 41  1  0  0  0  0
 16 42  1  0  0  0  0
M  END
> <PUBCHEM_COMPOUND_CID>
12304220

> <PUBCHEM_CONFORMER_RMSD>
0.6

> <PUBCHEM_CONFORMER_DIVERSEORDER>
3
2
4
1

> <PUBCHEM_MMFF94_PARTIAL_CHARGES>
9
1 -0.68
10 -0.29
11 0.14
13 -0.28
16 0.14
2 0.28
27 0.15
3 0.14
33 0.4

> <PUBCHEM_EFFECTIVE_ROTOR_COUNT>
2.2

> <PUBCHEM_PHARMACOPHORE_FEATURES>
5
1 1 acceptor
1 1 donor
3 9 14 15 hydrophobe
6 2 3 4 5 6 7 rings
6 2 3 8 10 11 13 rings

> <PUBCHEM_HEAVY_ATOM_COUNT>
16

> <PUBCHEM_ATOM_DEF_STEREO_COUNT>
4

> <PUBCHEM_ATOM_UDEF_STEREO_COUNT>
0

> <PUBCHEM_BOND_DEF_STEREO_COUNT>
0

> <PUBCHEM_BOND_UDEF_STEREO_COUNT>
0

> <PUBCHEM_ISOTOPIC_ATOM_COUNT>
0

> <PUBCHEM_COMPONENT_COUNT>
1

> <PUBCHEM_CACTVS_TAUTO_COUNT>
1

> <PUBCHEM_CONFORMER_ID>
00BBBF5C00000003

> <PUBCHEM_MMFF94_ENERGY>
39.3982

> <PUBCHEM_FEATURE_SELFOVERLAP>
25.445

> <PUBCHEM_SHAPE_FINGERPRINT>
11132069 177 18202280277851190394
11578080 2 18191842643997080244
12423570 1 13437932859364712104
12725867 57 18195511804476853549
13024252 1 16443925863583883672
13132413 78 18340486767543145277
14128692 85 18411423950642272455
14181834 199 18264772249381242412
14614273 12 18126852598980020927
14617773 55 17677887925309956818
14761567 1 17758980485344901799
14817 1 14465389165040185800
15852999 172 17624967244906016876
16945 1 18268140968330292202
18175812 5 16630525128790464242
18186145 218 14129335140049910590
19010151 120 18336546109484814398
200 152 17603581898871349090
20361792 2 18335422391395107783
20525323 117 17969792882106442552
20871998 184 18046638801812088292
21452121 199 17984129646360517099
21524375 3 17177704554969752604
22112679 90 18268732608733946077
22344851 262 17679878011117575304
22344851 341 17332256792710254789
22802520 49 16370724867905858119
232386 152 18131358548028452879
23388829 49 18187373103575697012
23402539 116 18343862221001253814
23419403 2 17842521245758619597
23526113 38 15357688695714807434
23557571 272 16988572324759080055
23559900 14 17774450356803631958
2748010 2 18270384114090870219
53812654 25 18339941345530457541
5845 1 11059967913266330713
7364860 26 17980195614935518613
77492 1 18334587827746901634
81228 2 18341339877060400969

> <PUBCHEM_SHAPE_MULTIPOLES>
323.4
4.67
2.46
1.49
0.96
1.52
0.15
-3.24
-0.24
-1.05
-0.35
0.35
0.09
-0.98

> <PUBCHEM_SHAPE_SELFOVERLAP>
658.233

> <PUBCHEM_SHAPE_VOLUME>
187.4

> <PUBCHEM_COORDINATE_TYPE>
2
5
10

$$$$
