85239073
  -OEChem-02172602323D

 35 36  0     1  0  0  0  0  0999 V2000
    2.0786    0.4798   -1.3734 O   0  0  0  0  0  0  0  0  0  0  0  0
   -1.0263    0.7969    0.5625 O   0  0  0  0  0  0  0  0  0  0  0  0
   -1.9425    2.2945   -0.9388 O   0  0  0  0  0  0  0  0  0  0  0  0
    2.3420    0.4794    0.0466 C   0  0  1  0  0  0  0  0  0  0  0  0
    1.0582    1.0287   -0.5379 C   0  0  2  0  0  0  0  0  0  0  0  0
   -0.2143    0.2432   -0.4751 C   0  0  1  0  0  0  0  0  0  0  0  0
    0.0099   -1.2581   -0.1983 C   0  0  1  0  0  0  0  0  0  0  0  0
    2.3855   -0.9105    0.6201 C   0  0  0  0  0  0  0  0  0  0  0  0
    1.0001   -1.4603    0.9601 C   0  0  0  0  0  0  0  0  0  0  0  0
    3.4395    1.4164    0.4367 C   0  0  0  0  0  0  0  0  0  0  0  0
   -1.3031   -1.9886    0.0904 C   0  0  0  0  0  0  0  0  0  0  0  0
   -2.3009   -1.7609   -1.0416 C   0  0  0  0  0  0  0  0  0  0  0  0
   -1.0505   -3.4796    0.2951 C   0  0  0  0  0  0  0  0  0  0  0  0
   -1.8452    1.8206    0.1851 C   0  0  0  0  0  0  0  0  0  0  0  0
   -2.6310    2.2985    1.3684 C   0  0  0  0  0  0  0  0  0  0  0  0
    0.9089    2.0991   -0.5858 H   0  0  0  0  0  0  0  0  0  0  0  0
   -0.7085    0.3406   -1.4498 H   0  0  0  0  0  0  0  0  0  0  0  0
    0.4661   -1.6989   -1.0971 H   0  0  0  0  0  0  0  0  0  0  0  0
    2.9962   -0.9232    1.5310 H   0  0  0  0  0  0  0  0  0  0  0  0
    2.8821   -1.5794   -0.0942 H   0  0  0  0  0  0  0  0  0  0  0  0
    1.1389   -2.5147    1.2128 H   0  0  0  0  0  0  0  0  0  0  0  0
    0.6217   -0.9632    1.8625 H   0  0  0  0  0  0  0  0  0  0  0  0
    3.3694    2.3719   -0.0940 H   0  0  0  0  0  0  0  0  0  0  0  0
    4.4169    0.9776    0.2116 H   0  0  0  0  0  0  0  0  0  0  0  0
    3.3947    1.6250    1.5104 H   0  0  0  0  0  0  0  0  0  0  0  0
   -1.7558   -1.6070    1.0148 H   0  0  0  0  0  0  0  0  0  0  0  0
   -3.1925   -2.3822   -0.8993 H   0  0  0  0  0  0  0  0  0  0  0  0
   -2.6528   -0.7269   -1.0856 H   0  0  0  0  0  0  0  0  0  0  0  0
   -1.8695   -2.0220   -2.0142 H   0  0  0  0  0  0  0  0  0  0  0  0
   -0.4282   -3.8992   -0.5025 H   0  0  0  0  0  0  0  0  0  0  0  0
   -1.9965   -4.0333    0.2989 H   0  0  0  0  0  0  0  0  0  0  0  0
   -0.5768   -3.6899    1.2582 H   0  0  0  0  0  0  0  0  0  0  0  0
   -3.2471    1.4837    1.7570 H   0  0  0  0  0  0  0  0  0  0  0  0
   -3.2887    3.1165    1.0608 H   0  0  0  0  0  0  0  0  0  0  0  0
   -1.9509    2.6693    2.1394 H   0  0  0  0  0  0  0  0  0  0  0  0
  1  4  1  0  0  0  0
  1  5  1  0  0  0  0
  2  6  1  0  0  0  0
  2 14  1  0  0  0  0
  3 14  2  0  0  0  0
  4  5  1  0  0  0  0
  4  8  1  0  0  0  0
  4 10  1  0  0  0  0
  5  6  1  0  0  0  0
  5 16  1  0  0  0  0
  6  7  1  0  0  0  0
  6 17  1  0  0  0  0
  7  9  1  0  0  0  0
  7 11  1  0  0  0  0
  7 18  1  0  0  0  0
  8  9  1  0  0  0  0
  8 19  1  0  0  0  0
  8 20  1  0  0  0  0
  9 21  1  0  0  0  0
  9 22  1  0  0  0  0
 10 23  1  0  0  0  0
 10 24  1  0  0  0  0
 10 25  1  0  0  0  0
 11 12  1  0  0  0  0
 11 13  1  0  0  0  0
 11 26  1  0  0  0  0
 12 27  1  0  0  0  0
 12 28  1  0  0  0  0
 12 29  1  0  0  0  0
 13 30  1  0  0  0  0
 13 31  1  0  0  0  0
 13 32  1  0  0  0  0
 14 15  1  0  0  0  0
 15 33  1  0  0  0  0
 15 34  1  0  0  0  0
 15 35  1  0  0  0  0
M  END
> <PUBCHEM_COMPOUND_CID>
85239073

> <PUBCHEM_CONFORMER_RMSD>
0.6

> <PUBCHEM_CONFORMER_DIVERSEORDER>
3
73
96
22
66
34
28
39
60
82
54
49
107
55
77
100
41
42
78
97
80
40
52
14
27
35
36
63
108
65
56
18
24
103
32
64
26
79
29
45
92
59
37
94
20
13
10
83
11
67
61
21
53
31
109
51
30
58
23
89
44
84
69
48
106
16
86
70
62
57
38
81
105
85
17
87
5
102
75
101
68
43
25
12
8
93
88
46
71
90
33
15
98
2
50
7
99
104
6
47
95
4
19
74
91
72
9
76
1

> <PUBCHEM_MMFF94_PARTIAL_CHARGES>
11
1 -0.3
10 0.09
14 0.66
15 0.06
16 0.1
2 -0.43
3 -0.57
4 -0.04
5 -0.05
6 0.38
8 0.09

> <PUBCHEM_EFFECTIVE_ROTOR_COUNT>
4

> <PUBCHEM_PHARMACOPHORE_FEATURES>
4
1 1 acceptor
1 3 acceptor
3 11 12 13 hydrophobe
7 1 4 5 6 7 8 9 rings

> <PUBCHEM_HEAVY_ATOM_COUNT>
15

> <PUBCHEM_ATOM_DEF_STEREO_COUNT>
0

> <PUBCHEM_ATOM_UDEF_STEREO_COUNT>
4

> <PUBCHEM_BOND_DEF_STEREO_COUNT>
0

> <PUBCHEM_BOND_UDEF_STEREO_COUNT>
0

> <PUBCHEM_ISOTOPIC_ATOM_COUNT>
0

> <PUBCHEM_COMPONENT_COUNT>
1

> <PUBCHEM_CACTVS_TAUTO_COUNT>
1

> <PUBCHEM_CONFORMER_ID>
0514A52100000003

> <PUBCHEM_MMFF94_ENERGY>
30.04

> <PUBCHEM_FEATURE_SELFOVERLAP>
20.297

> <PUBCHEM_SHAPE_FINGERPRINT>
1 1 17977952284744574125
108231 29 17471571500356190402
12423570 1 17187070487172606022
12532896 13 18341622477234192357
14617773 55 18339343236827207522
14817 1 18126592190875919917
15490181 7 18265617576275579237
15490181 8 18199465459243196743
15775835 57 18337961086313152448
15906896 17 18272368676639176543
16945 1 18264775535221205454
17775402 16 17758114087224693199
20510252 161 18340761658392838131
20511035 2 17897178926552701432
20711985 344 18198079133894264431
21041028 32 17620488230230903683
21501502 16 18410852166574151946
21524375 3 18199467662566804597
2334 1 18408882910582679862
23402539 116 17984131840798785334
23419403 2 15382926941305640058
23557571 272 18127133206468231534
23559900 14 18049148163100448792
2748010 2 18191033313038280911
305870 269 17765435344359963497
3060560 45 17906731397496080103
3312278 4 18045773752602105014
353137 74 18263067954950502415
68419 9 17825416186235639788
7364860 26 17476367101951461673
81228 2 18267875049835910537

> <PUBCHEM_SHAPE_MULTIPOLES>
291.09
4.15
3.41
1.11
2.54
0.41
0.02
-1.15
-0.2
-3.4
-0.71
-0.2
-0.26
-0.72

> <PUBCHEM_SHAPE_SELFOVERLAP>
589.052

> <PUBCHEM_SHAPE_VOLUME>
170.7

> <PUBCHEM_COORDINATE_TYPE>
2
5
10

$$$$
