11135431
  -OEChem-02172602523D

 48 49  0     0  0  0  0  0  0999 V2000
   -0.2968    4.6014    0.0302 I   0  0  0  0  0  0  0  0  0  0  0  0
    0.2956   -4.6019   -0.0333 I   0  0  0  0  0  0  0  0  0  0  0  0
    2.8799    0.4426   -0.9325 O   0  0  0  0  0  0  0  0  0  0  0  0
   -2.8799   -0.4432    0.9339 O   0  0  0  0  0  0  0  0  0  0  0  0
   -2.2015    2.0556    0.6814 N   0  0  0  0  0  0  0  0  0  0  0  0
    2.2009   -2.0559   -0.6821 N   0  0  0  0  0  0  0  0  0  0  0  0
   -0.6437    0.2114    0.2047 C   0  0  0  0  0  0  0  0  0  0  0  0
    0.6435   -0.2118   -0.2041 C   0  0  0  0  0  0  0  0  0  0  0  0
    1.6121    0.7518   -0.5296 C   0  0  0  0  0  0  0  0  0  0  0  0
   -1.6122   -0.7521    0.5300 C   0  0  0  0  0  0  0  0  0  0  0  0
   -0.9244    1.5857    0.2760 C   0  0  0  0  0  0  0  0  0  0  0  0
    0.9241   -1.5860   -0.2754 C   0  0  0  0  0  0  0  0  0  0  0  0
    3.9491    0.9298   -0.1269 C   0  0  0  0  0  0  0  0  0  0  0  0
   -3.9495   -0.9307    0.1289 C   0  0  0  0  0  0  0  0  0  0  0  0
    5.1270   -0.0273   -0.2417 C   0  0  0  0  0  0  0  0  0  0  0  0
   -5.1131    0.0470    0.2125 C   0  0  0  0  0  0  0  0  0  0  0  0
    1.3158    2.1130   -0.4530 C   0  0  0  0  0  0  0  0  0  0  0  0
   -1.3159   -2.1133    0.4535 C   0  0  0  0  0  0  0  0  0  0  0  0
    0.0500    2.5291   -0.0511 C   0  0  0  0  0  0  0  0  0  0  0  0
   -0.0502   -2.5294    0.0516 C   0  0  0  0  0  0  0  0  0  0  0  0
    6.3075    0.4268    0.6122 C   0  0  0  0  0  0  0  0  0  0  0  0
   -6.3046   -0.4228   -0.6171 C   0  0  0  0  0  0  0  0  0  0  0  0
    7.4658   -0.5542    0.5283 C   0  0  0  0  0  0  0  0  0  0  0  0
   -7.4795    0.5345   -0.4965 C   0  0  0  0  0  0  0  0  0  0  0  0
    4.8134   -1.0317    0.0669 H   0  0  0  0  0  0  0  0  0  0  0  0
    5.4267   -0.1150   -1.2934 H   0  0  0  0  0  0  0  0  0  0  0  0
   -5.4051    0.1749    1.2624 H   0  0  0  0  0  0  0  0  0  0  0  0
   -4.7893    1.0360   -0.1329 H   0  0  0  0  0  0  0  0  0  0  0  0
    3.6412    1.0082    0.9239 H   0  0  0  0  0  0  0  0  0  0  0  0
    4.2410    1.9240   -0.4840 H   0  0  0  0  0  0  0  0  0  0  0  0
   -4.2581   -1.9122    0.5065 H   0  0  0  0  0  0  0  0  0  0  0  0
   -3.6363   -1.0379   -0.9178 H   0  0  0  0  0  0  0  0  0  0  0  0
    2.0719    2.8468   -0.7232 H   0  0  0  0  0  0  0  0  0  0  0  0
   -2.0725   -2.8468    0.7231 H   0  0  0  0  0  0  0  0  0  0  0  0
    6.6469    1.4155    0.2823 H   0  0  0  0  0  0  0  0  0  0  0  0
    5.9958    0.5231    1.6588 H   0  0  0  0  0  0  0  0  0  0  0  0
   -6.0147   -0.5076   -1.6709 H   0  0  0  0  0  0  0  0  0  0  0  0
   -6.6196   -1.4191   -0.2860 H   0  0  0  0  0  0  0  0  0  0  0  0
   -2.8696    1.4315    1.1080 H   0  0  0  0  0  0  0  0  0  0  0  0
   -2.3615    3.0535    0.7355 H   0  0  0  0  0  0  0  0  0  0  0  0
    2.3613   -3.0538   -0.7353 H   0  0  0  0  0  0  0  0  0  0  0  0
    2.8693   -1.4315   -1.1077 H   0  0  0  0  0  0  0  0  0  0  0  0
    7.1675   -1.5453    0.8848 H   0  0  0  0  0  0  0  0  0  0  0  0
    7.8227   -0.6524   -0.5019 H   0  0  0  0  0  0  0  0  0  0  0  0
    8.3008   -0.2086    1.1457 H   0  0  0  0  0  0  0  0  0  0  0  0
   -7.8155    0.6145    0.5422 H   0  0  0  0  0  0  0  0  0  0  0  0
   -7.2080    1.5350   -0.8482 H   0  0  0  0  0  0  0  0  0  0  0  0
   -8.3213    0.1794   -1.0993 H   0  0  0  0  0  0  0  0  0  0  0  0
  1 19  1  0  0  0  0
  2 20  1  0  0  0  0
  3  9  1  0  0  0  0
  3 13  1  0  0  0  0
  4 10  1  0  0  0  0
  4 14  1  0  0  0  0
  5 11  1  0  0  0  0
  5 39  1  0  0  0  0
  5 40  1  0  0  0  0
  6 12  1  0  0  0  0
  6 41  1  0  0  0  0
  6 42  1  0  0  0  0
  7  8  2  0  0  0  0
  7 10  1  0  0  0  0
  7 11  1  0  0  0  0
  8  9  1  0  0  0  0
  8 12  1  0  0  0  0
  9 17  2  0  0  0  0
 10 18  2  0  0  0  0
 11 19  2  0  0  0  0
 12 20  2  0  0  0  0
 13 15  1  0  0  0  0
 13 29  1  0  0  0  0
 13 30  1  0  0  0  0
 14 16  1  0  0  0  0
 14 31  1  0  0  0  0
 14 32  1  0  0  0  0
 15 21  1  0  0  0  0
 15 25  1  0  0  0  0
 15 26  1  0  0  0  0
 16 22  1  0  0  0  0
 16 27  1  0  0  0  0
 16 28  1  0  0  0  0
 17 19  1  0  0  0  0
 17 33  1  0  0  0  0
 18 20  1  0  0  0  0
 18 34  1  0  0  0  0
 21 23  1  0  0  0  0
 21 35  1  0  0  0  0
 21 36  1  0  0  0  0
 22 24  1  0  0  0  0
 22 37  1  0  0  0  0
 22 38  1  0  0  0  0
 23 43  1  0  0  0  0
 23 44  1  0  0  0  0
 23 45  1  0  0  0  0
 24 46  1  0  0  0  0
 24 47  1  0  0  0  0
 24 48  1  0  0  0  0
M  END
> <PUBCHEM_COMPOUND_CID>
11135431

> <PUBCHEM_CONFORMER_RMSD>
0.8

> <PUBCHEM_CONFORMER_DIVERSEORDER>
1
20
29
61
12
11
41
60
30
6
59
19
33
52
55
10
54
43
28
39
3
49
58
2
36
56
62
46
15
8
27
44
23
13
34
53
40
21
38
22
51
37
32
45
26
18
25
47
42
24
17
48
57
50
16
35
9
7
5
31
4
14

> <PUBCHEM_MMFF94_PARTIAL_CHARGES>
22
1 -0.08
10 0.08
11 0.1
12 0.1
13 0.28
14 0.28
17 -0.15
18 -0.15
19 0.08
2 -0.08
20 0.08
3 -0.36
33 0.15
34 0.15
39 0.4
4 -0.36
40 0.4
41 0.4
42 0.4
5 -0.9
6 -0.9
9 0.08

> <PUBCHEM_EFFECTIVE_ROTOR_COUNT>
8

> <PUBCHEM_PHARMACOPHORE_FEATURES>
12
1 1 hydrophobe
1 2 hydrophobe
1 23 hydrophobe
1 24 hydrophobe
1 3 acceptor
1 4 acceptor
1 5 cation
1 5 donor
1 6 cation
1 6 donor
6 7 8 10 12 18 20 rings
6 7 8 9 11 17 19 rings

> <PUBCHEM_HEAVY_ATOM_COUNT>
24

> <PUBCHEM_ATOM_DEF_STEREO_COUNT>
0

> <PUBCHEM_ATOM_UDEF_STEREO_COUNT>
0

> <PUBCHEM_BOND_DEF_STEREO_COUNT>
0

> <PUBCHEM_BOND_UDEF_STEREO_COUNT>
0

> <PUBCHEM_ISOTOPIC_ATOM_COUNT>
0

> <PUBCHEM_COMPONENT_COUNT>
1

> <PUBCHEM_CACTVS_TAUTO_COUNT>
1

> <PUBCHEM_CONFORMER_ID>
00A9E9C700000001

> <PUBCHEM_MMFF94_ENERGY>
99.4386

> <PUBCHEM_FEATURE_SELFOVERLAP>
60.922

> <PUBCHEM_SHAPE_FINGERPRINT>
10693767 8 18130510734649401655
10906281 52 18265637474785149977
10930396 42 18196626654166470280
10967382 1 18338811094605342823
1100329 8 18266461095152247498
11646440 116 18271256001152767081
12011746 2 18411140250824899712
12730499 353 18334863861907344803
12788726 201 18260543399402699536
12838862 33 18338499907081912096
13004483 165 18261668260075506028
13140716 1 18051706734424908786
13862211 1 18410857697959266238
14117953 113 18410295809200176454
14790565 3 18338247040935783237
15042514 8 18337957921502685802
15131766 46 16373280232367075644
15927050 60 17763754191286900064
16087824 20 18338797798511182117
16728300 4 17534035525130478050
16945 1 18195272089261309957
18681886 176 18340760555034772675
20028762 73 18272934929169221679
20600515 1 18200050545621910136
20642791 105 18263076635475845620
20642791 13 18201167541972182657
21304304 249 18409730651976891158
2334 1 18266197074653478919
23402539 116 18343017830509695566
23559900 14 18268145547061472329
23569917 315 18341058492084175839
24771293 8 18202006542379602152
266924 87 18265894653258701813
2748010 2 18193861269982868478
283562 15 18341335474745861512
3009799 131 18408601474419047373
3084891 72 18410864290586606419
3178227 256 18337123362217330651
335352 9 18409167748502810004
3380486 77 18265914586371006844
4072396 5 18335695048740604458
57527358 35 15337739066651543522
58260988 647 14274280438151629712
59755656 215 18409733928535791182
6004065 56 18271804687472383517
6138700 20 18408885139618017490

> <PUBCHEM_SHAPE_MULTIPOLES>
496.08
13.31
4.96
0.82
0.04
0
0
0.01
0.03
-0.01
0
-0.01
0
-0.01

> <PUBCHEM_SHAPE_SELFOVERLAP>
990.663

> <PUBCHEM_SHAPE_VOLUME>
302

> <PUBCHEM_COORDINATE_TYPE>
2
5
10

$$$$
