12592078
  -OEChem-02172602483D

 45 46  0     1  0  0  0  0  0999 V2000
   -5.5252    1.4332    0.0850 Cl  0  0  0  0  0  0  0  0  0  0  0  0
    1.4816   -1.5900   -1.6040 O   0  0  0  0  0  0  0  0  0  0  0  0
    0.3493    1.5700   -0.3547 O   0  0  0  0  0  0  0  0  0  0  0  0
    2.8402    1.0465    0.3977 O   0  0  0  0  0  0  0  0  0  0  0  0
   -0.1809    0.3847   -2.2565 O   0  0  0  0  0  0  0  0  0  0  0  0
    3.8174   -0.4653   -1.0394 O   0  0  0  0  0  0  0  0  0  0  0  0
    0.9035   -1.1107    0.6566 C   0  0  1  0  0  0  0  0  0  0  0  0
    1.7654   -2.2956    1.1221 C   0  0  0  0  0  0  0  0  0  0  0  0
    1.4140   -0.5290   -0.6608 C   0  0  0  0  0  0  0  0  0  0  0  0
   -0.4649   -1.7390    0.5138 C   0  0  0  0  0  0  0  0  0  0  0  0
    1.0409   -3.5510    0.6515 C   0  0  0  0  0  0  0  0  0  0  0  0
   -0.3679   -3.0789    0.5166 C   0  0  0  0  0  0  0  0  0  0  0  0
   -1.7131   -0.9563    0.4078 C   0  0  0  0  0  0  0  0  0  0  0  0
    0.4360    0.5040   -1.2052 C   0  0  0  0  0  0  0  0  0  0  0  0
    2.8326   -0.0043   -0.4753 C   0  0  0  0  0  0  0  0  0  0  0  0
   -2.0752   -0.0790    1.4301 C   0  0  0  0  0  0  0  0  0  0  0  0
   -2.5299   -1.0944   -0.7145 C   0  0  0  0  0  0  0  0  0  0  0  0
   -3.2539    0.6601    1.3300 C   0  0  0  0  0  0  0  0  0  0  0  0
   -3.7086   -0.3554   -0.8145 C   0  0  0  0  0  0  0  0  0  0  0  0
   -0.5447    2.6124   -0.7582 C   0  0  0  0  0  0  0  0  0  0  0  0
    4.1213    1.6321    0.6500 C   0  0  0  0  0  0  0  0  0  0  0  0
   -4.0705    0.5219    0.2077 C   0  0  0  0  0  0  0  0  0  0  0  0
   -0.5246    3.7100    0.2840 C   0  0  0  0  0  0  0  0  0  0  0  0
    3.9572    2.7740    1.6302 C   0  0  0  0  0  0  0  0  0  0  0  0
    0.8958   -0.3492    1.4467 H   0  0  0  0  0  0  0  0  0  0  0  0
    2.8053   -2.2793    0.7836 H   0  0  0  0  0  0  0  0  0  0  0  0
    1.8008   -2.2975    2.2208 H   0  0  0  0  0  0  0  0  0  0  0  0
    1.4198   -3.9156   -0.3082 H   0  0  0  0  0  0  0  0  0  0  0  0
    1.1283   -4.3528    1.3907 H   0  0  0  0  0  0  0  0  0  0  0  0
   -1.2056   -3.7558    0.4179 H   0  0  0  0  0  0  0  0  0  0  0  0
    1.8113   -1.2262   -2.4437 H   0  0  0  0  0  0  0  0  0  0  0  0
   -1.4521    0.0395    2.3130 H   0  0  0  0  0  0  0  0  0  0  0  0
   -2.2620   -1.7712   -1.5223 H   0  0  0  0  0  0  0  0  0  0  0  0
   -3.5230    1.3403    2.1340 H   0  0  0  0  0  0  0  0  0  0  0  0
   -4.3347   -0.4724   -1.6953 H   0  0  0  0  0  0  0  0  0  0  0  0
   -1.5586    2.2139   -0.8614 H   0  0  0  0  0  0  0  0  0  0  0  0
   -0.2173    3.0165   -1.7227 H   0  0  0  0  0  0  0  0  0  0  0  0
    4.5419    2.0082   -0.2892 H   0  0  0  0  0  0  0  0  0  0  0  0
    4.7917    0.8752    1.0722 H   0  0  0  0  0  0  0  0  0  0  0  0
   -0.8310    3.3192    1.2600 H   0  0  0  0  0  0  0  0  0  0  0  0
    0.4884    4.1078    0.4051 H   0  0  0  0  0  0  0  0  0  0  0  0
   -1.1950    4.5274    0.0045 H   0  0  0  0  0  0  0  0  0  0  0  0
    3.2734    3.5298    1.2297 H   0  0  0  0  0  0  0  0  0  0  0  0
    3.5203    2.4162    2.5684 H   0  0  0  0  0  0  0  0  0  0  0  0
    4.9195    3.2464    1.8457 H   0  0  0  0  0  0  0  0  0  0  0  0
  1 22  1  0  0  0  0
  2  9  1  0  0  0  0
  2 31  1  0  0  0  0
  3 14  1  0  0  0  0
  3 20  1  0  0  0  0
  4 15  1  0  0  0  0
  4 21  1  0  0  0  0
  5 14  2  0  0  0  0
  6 15  2  0  0  0  0
  7  8  1  0  0  0  0
  7  9  1  0  0  0  0
  7 10  1  0  0  0  0
  7 25  1  0  0  0  0
  8 11  1  0  0  0  0
  8 26  1  0  0  0  0
  8 27  1  0  0  0  0
  9 14  1  0  0  0  0
  9 15  1  0  0  0  0
 10 12  2  0  0  0  0
 10 13  1  0  0  0  0
 11 12  1  0  0  0  0
 11 28  1  0  0  0  0
 11 29  1  0  0  0  0
 12 30  1  0  0  0  0
 13 16  2  0  0  0  0
 13 17  1  0  0  0  0
 16 18  1  0  0  0  0
 16 32  1  0  0  0  0
 17 19  2  0  0  0  0
 17 33  1  0  0  0  0
 18 22  2  0  0  0  0
 18 34  1  0  0  0  0
 19 22  1  0  0  0  0
 19 35  1  0  0  0  0
 20 23  1  0  0  0  0
 20 36  1  0  0  0  0
 20 37  1  0  0  0  0
 21 24  1  0  0  0  0
 21 38  1  0  0  0  0
 21 39  1  0  0  0  0
 23 40  1  0  0  0  0
 23 41  1  0  0  0  0
 23 42  1  0  0  0  0
 24 43  1  0  0  0  0
 24 44  1  0  0  0  0
 24 45  1  0  0  0  0
M  END
> <PUBCHEM_COMPOUND_CID>
12592078

> <PUBCHEM_CONFORMER_RMSD>
0.8

> <PUBCHEM_CONFORMER_DIVERSEORDER>
1
78
76
42
49
5
87
51
48
15
61
10
45
85
86
35
74
37
82
4
73
60
38
14
56
27
33
65
75
92
89
68
80
57
19
58
54
59
24
66
81
70
67
53
8
77
7
83
23
39
90
88
9
44
29
94
71
36
64
84
46
40
22
43
11
47
52
32
93
30
25
79
13
50
63
6
31
91
41
96
12
95
72
2
16
62
18
69
28
20
26
17
21
55
3
34

> <PUBCHEM_MMFF94_PARTIAL_CHARGES>
27
1 -0.18
10 -0.17
11 0.14
12 -0.29
13 0.03
14 0.66
15 0.66
16 -0.15
17 -0.15
18 -0.15
19 -0.15
2 -0.68
20 0.28
21 0.28
22 0.18
3 -0.43
30 0.15
31 0.4
32 0.15
33 0.15
34 0.15
35 0.15
4 -0.43
5 -0.57
6 -0.57
7 0.14
9 0.4

> <PUBCHEM_EFFECTIVE_ROTOR_COUNT>
8.6

> <PUBCHEM_PHARMACOPHORE_FEATURES>
6
1 2 acceptor
1 2 donor
1 5 acceptor
1 6 acceptor
5 7 8 10 11 12 rings
6 13 16 17 18 19 22 rings

> <PUBCHEM_HEAVY_ATOM_COUNT>
24

> <PUBCHEM_ATOM_DEF_STEREO_COUNT>
0

> <PUBCHEM_ATOM_UDEF_STEREO_COUNT>
1

> <PUBCHEM_BOND_DEF_STEREO_COUNT>
0

> <PUBCHEM_BOND_UDEF_STEREO_COUNT>
0

> <PUBCHEM_ISOTOPIC_ATOM_COUNT>
0

> <PUBCHEM_COMPONENT_COUNT>
1

> <PUBCHEM_CACTVS_TAUTO_COUNT>
1

> <PUBCHEM_CONFORMER_ID>
00C023CE00000001

> <PUBCHEM_MMFF94_ENERGY>
46.8307

> <PUBCHEM_FEATURE_SELFOVERLAP>
30.464

> <PUBCHEM_SHAPE_FINGERPRINT>
10006869 2 18197204867748098677
104564 63 17830751858614852607
10863032 1 16559038211235942142
10948715 1 18200872980097791070
11370993 70 18268424805554989768
11578080 2 17625223483082418057
12422481 6 17460290218781122224
12633257 1 18191851513689784632
13140716 1 18260544515599032250
13544592 271 18261678159520962443
13965767 371 18113605772977355162
14142880 1 17910372215946382424
14178342 30 18041284365185158147
14223421 5 18045216038013195332
14787075 74 17769927201731109675
14790565 3 18261127295305695844
16945 1 17167860897938482494
17980427 26 18270665524717217190
20600515 1 18262520432815443124
21033648 29 18336834198595383200
23419403 2 17317012807126458598
23559900 14 18337402642724157436
2748010 2 18191047735665756506
34934 24 18413106148057156933
350125 39 18116712911802724918
474 4 18340770445911931985
495365 180 18188208689611210131
568465 68 17750250229992184833
84936 182 18342173332512242411
9981440 41 17914888979770140210

> <PUBCHEM_SHAPE_MULTIPOLES>
466.43
7.4
3.82
1.48
3.95
0.23
0.25
4.68
-1.34
-2
-1.16
-0.38
0.14
0.63

> <PUBCHEM_SHAPE_SELFOVERLAP>
973.84

> <PUBCHEM_SHAPE_VOLUME>
266

> <PUBCHEM_COORDINATE_TYPE>
2
5
10

$$$$
