5364177
  -OEChem-02172602493D

 23 23  0     1  0  0  0  0  0999 V2000
    0.2182   -2.7868   -0.0860 S   0  0  0  0  0  0  0  0  0  0  0  0
    2.9325    1.3647    0.2625 O   0  0  0  0  0  0  0  0  0  0  0  0
   -0.2014   -0.0571   -0.2682 N   0  0  0  0  0  0  0  0  0  0  0  0
    1.8984   -0.7127    0.1490 N   0  0  0  0  0  0  0  0  0  0  0  0
   -1.6242   -0.0171   -0.5348 C   0  0  1  0  0  0  0  0  0  0  0  0
   -2.3489    0.7647    0.5674 C   0  0  0  0  0  0  0  0  0  0  0  0
    0.5550    1.1779   -0.1740 C   0  0  0  0  0  0  0  0  0  0  0  0
   -1.8466    0.6295   -1.8982 C   0  0  0  0  0  0  0  0  0  0  0  0
    0.6221   -1.1730   -0.0718 C   0  0  0  0  0  0  0  0  0  0  0  0
    1.9473    0.6579    0.1058 C   0  0  0  0  0  0  0  0  0  0  0  0
   -2.1523    0.1519    1.9484 C   0  0  0  0  0  0  0  0  0  0  0  0
   -2.0208   -1.0366   -0.5684 H   0  0  0  0  0  0  0  0  0  0  0  0
   -3.4234    0.7732    0.3448 H   0  0  0  0  0  0  0  0  0  0  0  0
   -2.0355    1.8148    0.5904 H   0  0  0  0  0  0  0  0  0  0  0  0
    0.2156    1.7898    0.6636 H   0  0  0  0  0  0  0  0  0  0  0  0
    0.5479    1.7185   -1.1222 H   0  0  0  0  0  0  0  0  0  0  0  0
   -2.9028    0.5624   -2.1812 H   0  0  0  0  0  0  0  0  0  0  0  0
   -1.5769    1.6908   -1.9075 H   0  0  0  0  0  0  0  0  0  0  0  0
   -1.2604    0.1252   -2.6744 H   0  0  0  0  0  0  0  0  0  0  0  0
   -1.1093    0.2067    2.2736 H   0  0  0  0  0  0  0  0  0  0  0  0
   -2.7568    0.6906    2.6852 H   0  0  0  0  0  0  0  0  0  0  0  0
   -2.4643   -0.8973    1.9599 H   0  0  0  0  0  0  0  0  0  0  0  0
    2.6996   -1.3089    0.3213 H   0  0  0  0  0  0  0  0  0  0  0  0
  1  9  2  0  0  0  0
  2 10  2  0  0  0  0
  3  5  1  0  0  0  0
  3  7  1  0  0  0  0
  3  9  1  0  0  0  0
  4  9  1  0  0  0  0
  4 10  1  0  0  0  0
  4 23  1  0  0  0  0
  5  6  1  0  0  0  0
  5  8  1  0  0  0  0
  5 12  1  0  0  0  0
  6 11  1  0  0  0  0
  6 13  1  0  0  0  0
  6 14  1  0  0  0  0
  7 10  1  0  0  0  0
  7 15  1  0  0  0  0
  7 16  1  0  0  0  0
  8 17  1  0  0  0  0
  8 18  1  0  0  0  0
  8 19  1  0  0  0  0
 11 20  1  0  0  0  0
 11 21  1  0  0  0  0
 11 22  1  0  0  0  0
M  END
> <PUBCHEM_COMPOUND_CID>
5364177

> <PUBCHEM_CONFORMER_RMSD>
0.6

> <PUBCHEM_CONFORMER_DIVERSEORDER>
1
4
6
3
2
5

> <PUBCHEM_MMFF94_PARTIAL_CHARGES>
9
1 -0.38
10 0.57
2 -0.57
23 0.37
3 -0.66
4 -0.49
5 0.3
7 0.36
9 0.5

> <PUBCHEM_EFFECTIVE_ROTOR_COUNT>
2.6

> <PUBCHEM_PHARMACOPHORE_FEATURES>
5
1 1 acceptor
1 11 hydrophobe
1 2 acceptor
1 4 donor
5 3 4 7 9 10 rings

> <PUBCHEM_HEAVY_ATOM_COUNT>
11

> <PUBCHEM_ATOM_DEF_STEREO_COUNT>
0

> <PUBCHEM_ATOM_UDEF_STEREO_COUNT>
1

> <PUBCHEM_BOND_DEF_STEREO_COUNT>
0

> <PUBCHEM_BOND_UDEF_STEREO_COUNT>
0

> <PUBCHEM_ISOTOPIC_ATOM_COUNT>
0

> <PUBCHEM_COMPONENT_COUNT>
1

> <PUBCHEM_CACTVS_TAUTO_COUNT>
3

> <PUBCHEM_CONFORMER_ID>
0051D9D100000001

> <PUBCHEM_MMFF94_ENERGY>
16.187

> <PUBCHEM_FEATURE_SELFOVERLAP>
25.371

> <PUBCHEM_SHAPE_FINGERPRINT>
10857977 72 17241061975647875545
12423570 1 10495054313660804306
13898156 1 17130691791571191727
14817 1 8203493840422844475
15775835 57 17703518722327426177
16945 1 18195237819849325502
19837323 101 15625960728346098097
20379382 53 18122648066525890003
20653085 51 16486434181562800728
20711978 78 18122355583632532195
21040471 1 18338228379608025308
21061003 4 17976554805423934162
21922407 69 18131064879766059491
228727 97 17560504201378178661
23211744 41 17532074030292050021
23236772 104 17704069625013334129
2748010 2 18334008376523588270
29004967 10 18189625942507710713
430814 3 17417269648996134843
5084963 1 18129926936496508318
81228 2 17831582350761071858

> <PUBCHEM_SHAPE_MULTIPOLES>
214.39
3.44
2.04
1.39
0.27
1.81
-0.01
-1.54
-0.68
1.14
0.08
-1.46
-0.23
0.21

> <PUBCHEM_SHAPE_SELFOVERLAP>
415.19

> <PUBCHEM_SHAPE_VOLUME>
133.4

> <PUBCHEM_COORDINATE_TYPE>
2
5
10

$$$$
