179444
  -OEChem-02172602493D

 53 52  0     1  0  0  0  0  0999 V2000
    5.5426   -0.7363   -0.2539 C   0  0  1  0  0  0  0  0  0  0  0  0
    4.2454   -0.1356    0.3265 C   0  0  0  0  0  0  0  0  0  0  0  0
    2.9457   -0.7391   -0.2184 C   0  0  0  0  0  0  0  0  0  0  0  0
    1.7223   -0.0232    0.3627 C   0  0  0  0  0  0  0  0  0  0  0  0
    0.3927   -0.5616   -0.1753 C   0  0  0  0  0  0  0  0  0  0  0  0
   -0.8288    0.1699    0.3869 C   0  0  0  0  0  0  0  0  0  0  0  0
    6.8301    0.0078    0.1545 C   0  0  0  0  0  0  0  0  0  0  0  0
   -2.1582   -0.3600   -0.1619 C   0  0  0  0  0  0  0  0  0  0  0  0
   -3.4171    0.3503    0.3486 C   0  0  0  0  0  0  0  0  0  0  0  0
   -4.7152   -0.2614   -0.1848 C   0  0  0  0  0  0  0  0  0  0  0  0
    5.6742   -2.2226    0.0990 C   0  0  0  0  0  0  0  0  0  0  0  0
    7.0430    1.3772   -0.4980 C   0  0  0  0  0  0  0  0  0  0  0  0
   -5.9755    0.4427    0.3304 C   0  0  0  0  0  0  0  0  0  0  0  0
   -7.2682   -0.1204   -0.2663 C   0  0  0  0  0  0  0  0  0  0  0  0
    8.2991    2.0890   -0.0204 C   0  0  0  0  0  0  0  0  0  0  0  0
   -8.5230    0.6282    0.1915 C   0  0  0  0  0  0  0  0  0  0  0  0
   -9.8090    0.0949   -0.4211 C   0  0  0  0  0  0  0  0  0  0  0  0
    5.4721   -0.6786   -1.3488 H   0  0  0  0  0  0  0  0  0  0  0  0
    4.2605   -0.2369    1.4193 H   0  0  0  0  0  0  0  0  0  0  0  0
    4.2319    0.9408    0.1185 H   0  0  0  0  0  0  0  0  0  0  0  0
    2.8837   -1.8029    0.0336 H   0  0  0  0  0  0  0  0  0  0  0  0
    2.9343   -0.6594   -1.3117 H   0  0  0  0  0  0  0  0  0  0  0  0
    1.7321   -0.1175    1.4557 H   0  0  0  0  0  0  0  0  0  0  0  0
    1.7890    1.0482    0.1363 H   0  0  0  0  0  0  0  0  0  0  0  0
    0.3887   -0.4791   -1.2692 H   0  0  0  0  0  0  0  0  0  0  0  0
    0.3146   -1.6297    0.0621 H   0  0  0  0  0  0  0  0  0  0  0  0
   -0.7483    1.2389    0.1546 H   0  0  0  0  0  0  0  0  0  0  0  0
   -0.8323    0.0825    1.4802 H   0  0  0  0  0  0  0  0  0  0  0  0
    6.8430    0.1221    1.2462 H   0  0  0  0  0  0  0  0  0  0  0  0
    7.7001   -0.6125   -0.0981 H   0  0  0  0  0  0  0  0  0  0  0  0
   -2.1394   -0.2934   -1.2571 H   0  0  0  0  0  0  0  0  0  0  0  0
   -2.2341   -1.4274    0.0817 H   0  0  0  0  0  0  0  0  0  0  0  0
   -3.3701    1.4090    0.0661 H   0  0  0  0  0  0  0  0  0  0  0  0
   -3.4274    0.3147    1.4448 H   0  0  0  0  0  0  0  0  0  0  0  0
   -4.7583   -1.3217    0.0929 H   0  0  0  0  0  0  0  0  0  0  0  0
   -4.7034   -0.2213   -1.2811 H   0  0  0  0  0  0  0  0  0  0  0  0
    6.5979   -2.6429   -0.3139 H   0  0  0  0  0  0  0  0  0  0  0  0
    4.8479   -2.8091   -0.3129 H   0  0  0  0  0  0  0  0  0  0  0  0
    5.6920   -2.3691    1.1841 H   0  0  0  0  0  0  0  0  0  0  0  0
    6.1836    2.0243   -0.2921 H   0  0  0  0  0  0  0  0  0  0  0  0
    7.0943    1.2548   -1.5863 H   0  0  0  0  0  0  0  0  0  0  0  0
   -5.9086    1.5117    0.0934 H   0  0  0  0  0  0  0  0  0  0  0  0
   -6.0146    0.3621    1.4236 H   0  0  0  0  0  0  0  0  0  0  0  0
   -7.2073   -0.0769   -1.3609 H   0  0  0  0  0  0  0  0  0  0  0  0
   -7.3593   -1.1795    0.0037 H   0  0  0  0  0  0  0  0  0  0  0  0
    9.1918    1.4954   -0.2414 H   0  0  0  0  0  0  0  0  0  0  0  0
    8.2616    2.2643    1.0594 H   0  0  0  0  0  0  0  0  0  0  0  0
    8.4012    3.0574   -0.5200 H   0  0  0  0  0  0  0  0  0  0  0  0
   -8.4255    1.6899   -0.0644 H   0  0  0  0  0  0  0  0  0  0  0  0
   -8.6002    0.5709    1.2838 H   0  0  0  0  0  0  0  0  0  0  0  0
   -9.9602   -0.9563   -0.1562 H   0  0  0  0  0  0  0  0  0  0  0  0
  -10.6691    0.6659   -0.0577 H   0  0  0  0  0  0  0  0  0  0  0  0
   -9.7830    0.1739   -1.5125 H   0  0  0  0  0  0  0  0  0  0  0  0
  1  2  1  0  0  0  0
  1  7  1  0  0  0  0
  1 11  1  0  0  0  0
  1 18  1  0  0  0  0
  2  3  1  0  0  0  0
  2 19  1  0  0  0  0
  2 20  1  0  0  0  0
  3  4  1  0  0  0  0
  3 21  1  0  0  0  0
  3 22  1  0  0  0  0
  4  5  1  0  0  0  0
  4 23  1  0  0  0  0
  4 24  1  0  0  0  0
  5  6  1  0  0  0  0
  5 25  1  0  0  0  0
  5 26  1  0  0  0  0
  6  8  1  0  0  0  0
  6 27  1  0  0  0  0
  6 28  1  0  0  0  0
  7 12  1  0  0  0  0
  7 29  1  0  0  0  0
  7 30  1  0  0  0  0
  8  9  1  0  0  0  0
  8 31  1  0  0  0  0
  8 32  1  0  0  0  0
  9 10  1  0  0  0  0
  9 33  1  0  0  0  0
  9 34  1  0  0  0  0
 10 13  1  0  0  0  0
 10 35  1  0  0  0  0
 10 36  1  0  0  0  0
 11 37  1  0  0  0  0
 11 38  1  0  0  0  0
 11 39  1  0  0  0  0
 12 15  1  0  0  0  0
 12 40  1  0  0  0  0
 12 41  1  0  0  0  0
 13 14  1  0  0  0  0
 13 42  1  0  0  0  0
 13 43  1  0  0  0  0
 14 16  1  0  0  0  0
 14 44  1  0  0  0  0
 14 45  1  0  0  0  0
 15 46  1  0  0  0  0
 15 47  1  0  0  0  0
 15 48  1  0  0  0  0
 16 17  1  0  0  0  0
 16 49  1  0  0  0  0
 16 50  1  0  0  0  0
 17 51  1  0  0  0  0
 17 52  1  0  0  0  0
 17 53  1  0  0  0  0
M  END
> <PUBCHEM_COMPOUND_CID>
179444

> <PUBCHEM_CONFORMER_RMSD>
1.4

> <PUBCHEM_CONFORMER_DIVERSEORDER>
1
39
20
3
41
33
26
11
30
32
4
28
18
37
24
34
35
6
38
43
21
45
25
10
13
42
16
27
14
2
29
36
19
7
23
17
44
22
46
5
15
47
12
9
31
40
8

> <PUBCHEM_MMFF94_PARTIAL_CHARGES>
0

> <PUBCHEM_EFFECTIVE_ROTOR_COUNT>
13

> <PUBCHEM_PHARMACOPHORE_FEATURES>
3
1 11 hydrophobe
1 15 hydrophobe
1 17 hydrophobe

> <PUBCHEM_HEAVY_ATOM_COUNT>
17

> <PUBCHEM_ATOM_DEF_STEREO_COUNT>
0

> <PUBCHEM_ATOM_UDEF_STEREO_COUNT>
1

> <PUBCHEM_BOND_DEF_STEREO_COUNT>
0

> <PUBCHEM_BOND_UDEF_STEREO_COUNT>
0

> <PUBCHEM_ISOTOPIC_ATOM_COUNT>
0

> <PUBCHEM_COMPONENT_COUNT>
1

> <PUBCHEM_CACTVS_TAUTO_COUNT>
1

> <PUBCHEM_CONFORMER_ID>
0002BCF400000001

> <PUBCHEM_MMFF94_ENERGY>
1.77

> <PUBCHEM_FEATURE_SELFOVERLAP>
15.223

> <PUBCHEM_SHAPE_FINGERPRINT>
11315181 36 18343868823467982259
11638347 137 15791723097603416536
14123256 10 16225766307520272199
14251764 18 17846781793455299905
14251764 46 18410292510180028235
14428016 248 17988650696777751865
15510794 2 17894917329755597394
155225 1 18409730703849139204
16120349 18 18408884066061160700
195137 175 18060426802626967665
20157964 124 18335422357779167878
20812841 46 18261104177009874288
21095086 128 10447927265842071645
21150785 3 17917994988280340152
22224240 67 17385724703229233843
23521765 1 18342175553711921355
246663 6 12679465291576266237
335352 9 17774999107816432757
33684 2 18272650134356792539
59682541 35 17821733853612707121
67123 10 18410855473725233199
8209 1 18343863308466249115

> <PUBCHEM_SHAPE_MULTIPOLES>
349.85
33.23
1.42
0.7
36.22
0
0
10.02
2.82
-4.51
0.04
0.05
0.02
-0.45

> <PUBCHEM_SHAPE_SELFOVERLAP>
622.836

> <PUBCHEM_SHAPE_VOLUME>
228.6

> <PUBCHEM_COORDINATE_TYPE>
2
5
10

$$$$
