5365557
  -OEChem-02172602573D

 20 19  0     0  0  0  0  0  0999 V2000
    0.8927    1.4922    0.1814 C   0  0  0  0  0  0  0  0  0  0  0  0
    2.2055    0.7469   -0.0809 C   0  0  0  0  0  0  0  0  0  0  0  0
   -0.2915    0.8165   -0.4524 C   0  0  0  0  0  0  0  0  0  0  0  0
    2.1955   -0.6518    0.4657 C   0  0  0  0  0  0  0  0  0  0  0  0
   -1.3468    0.3634    0.2406 C   0  0  0  0  0  0  0  0  0  0  0  0
    2.3584   -1.7484   -0.2828 C   0  0  0  0  0  0  0  0  0  0  0  0
   -2.4796   -0.2828   -0.3794 C   0  0  0  0  0  0  0  0  0  0  0  0
   -3.5341   -0.7361    0.3077 C   0  0  0  0  0  0  0  0  0  0  0  0
    0.9719    2.5061   -0.2289 H   0  0  0  0  0  0  0  0  0  0  0  0
    0.7439    1.6042    1.2629 H   0  0  0  0  0  0  0  0  0  0  0  0
    3.0270    1.2975    0.3931 H   0  0  0  0  0  0  0  0  0  0  0  0
    2.4150    0.7406   -1.1582 H   0  0  0  0  0  0  0  0  0  0  0  0
   -0.2676    0.7120   -1.5351 H   0  0  0  0  0  0  0  0  0  0  0  0
    2.0586   -0.7677    1.5378 H   0  0  0  0  0  0  0  0  0  0  0  0
   -1.3667    0.4759    1.3217 H   0  0  0  0  0  0  0  0  0  0  0  0
    2.3466   -2.7319    0.1742 H   0  0  0  0  0  0  0  0  0  0  0  0
    2.5036   -1.6868   -1.3556 H   0  0  0  0  0  0  0  0  0  0  0  0
   -2.4682   -0.4037   -1.4593 H   0  0  0  0  0  0  0  0  0  0  0  0
   -4.3590   -1.2144   -0.2098 H   0  0  0  0  0  0  0  0  0  0  0  0
   -3.6012   -0.6435    1.3867 H   0  0  0  0  0  0  0  0  0  0  0  0
  1  2  1  0  0  0  0
  1  3  1  0  0  0  0
  1  9  1  0  0  0  0
  1 10  1  0  0  0  0
  2  4  1  0  0  0  0
  2 11  1  0  0  0  0
  2 12  1  0  0  0  0
  3  5  2  0  0  0  0
  3 13  1  0  0  0  0
  4  6  2  0  0  0  0
  4 14  1  0  0  0  0
  5  7  1  0  0  0  0
  5 15  1  0  0  0  0
  6 16  1  0  0  0  0
  6 17  1  0  0  0  0
  7  8  2  0  0  0  0
  7 18  1  0  0  0  0
  8 19  1  0  0  0  0
  8 20  1  0  0  0  0
M  END
> <PUBCHEM_COMPOUND_CID>
5365557

> <PUBCHEM_CONFORMER_RMSD>
0.6

> <PUBCHEM_CONFORMER_DIVERSEORDER>
1
11
18
5
15
3
17
12
14
16
2
9
8
7
10
13
6
4

> <PUBCHEM_MMFF94_PARTIAL_CHARGES>
16
1 0.14
13 0.15
14 0.15
15 0.15
16 0.15
17 0.15
18 0.15
19 0.15
2 0.14
20 0.15
3 -0.29
4 -0.29
5 -0.15
6 -0.3
7 -0.15
8 -0.3

> <PUBCHEM_EFFECTIVE_ROTOR_COUNT>
4

> <PUBCHEM_PHARMACOPHORE_FEATURES>
3
1 6 hydrophobe
1 8 hydrophobe
4 1 2 3 4 hydrophobe

> <PUBCHEM_HEAVY_ATOM_COUNT>
8

> <PUBCHEM_ATOM_DEF_STEREO_COUNT>
0

> <PUBCHEM_ATOM_UDEF_STEREO_COUNT>
0

> <PUBCHEM_BOND_DEF_STEREO_COUNT>
1

> <PUBCHEM_BOND_UDEF_STEREO_COUNT>
0

> <PUBCHEM_ISOTOPIC_ATOM_COUNT>
0

> <PUBCHEM_COMPONENT_COUNT>
1

> <PUBCHEM_CACTVS_TAUTO_COUNT>
1

> <PUBCHEM_CONFORMER_ID>
0051DF3500000001

> <PUBCHEM_MMFF94_ENERGY>
2.9174

> <PUBCHEM_FEATURE_SELFOVERLAP>
15.234

> <PUBCHEM_SHAPE_FINGERPRINT>
12932764 1 17845931935260026669
14251717 144 18411693318491661463
20201158 50 18333448746379712490
20645477 70 18409441510209244087
20711978 78 18342443859759882956
20711985 344 17460305547482627756
20871998 22 18270966717867593462
23552333 60 18130793390456521344
23552423 10 18186804634294076444
29004967 10 18409725175292136968

> <PUBCHEM_SHAPE_MULTIPOLES>
164.64
5.19
1.58
0.72
3.34
0.21
0
2.28
0.29
-1.11
-0.06
0.02
0.02
0.14

> <PUBCHEM_SHAPE_SELFOVERLAP>
298.521

> <PUBCHEM_SHAPE_VOLUME>
105.2

> <PUBCHEM_COORDINATE_TYPE>
2
5
10

$$$$
