102431711
  -OEChem-02172602493D

 47 49  0     0  0  0  0  0  0999 V2000
   -4.5537   -0.3808    1.8946 O   0  0  0  0  0  0  0  0  0  0  0  0
   -3.2942    2.1107   -1.9972 O   0  0  0  0  0  0  0  0  0  0  0  0
   -5.1238    1.5676    0.0102 O   0  0  0  0  0  0  0  0  0  0  0  0
   -1.3488   -3.3837   -0.5442 O   0  0  0  0  0  0  0  0  0  0  0  0
    4.5053    2.6118    1.3410 O   0  0  0  0  0  0  0  0  0  0  0  0
    0.8495   -0.6133   -0.1675 N   0  0  0  0  0  0  0  0  0  0  0  0
    0.9549   -3.3754   -0.3993 N   0  0  0  0  0  0  0  0  0  0  0  0
   -1.5432   -0.5290   -0.1732 C   0  0  0  0  0  0  0  0  0  0  0  0
   -0.2668   -1.2766   -0.2388 C   0  0  0  0  0  0  0  0  0  0  0  0
    2.0388   -1.3050   -0.1975 C   0  0  0  0  0  0  0  0  0  0  0  0
   -1.8268    0.4516   -1.1240 C   0  0  0  0  0  0  0  0  0  0  0  0
   -2.4620   -0.8051    0.8393 C   0  0  0  0  0  0  0  0  0  0  0  0
   -3.6647   -0.1011    0.9008 C   0  0  0  0  0  0  0  0  0  0  0  0
   -3.0293    1.1557   -1.0622 C   0  0  0  0  0  0  0  0  0  0  0  0
   -3.9483    0.8795   -0.0500 C   0  0  0  0  0  0  0  0  0  0  0  0
    3.2870   -0.5129   -0.1218 C   0  0  0  0  0  0  0  0  0  0  0  0
   -0.2910   -2.7907   -0.4006 C   0  0  0  0  0  0  0  0  0  0  0  0
    2.0998   -2.6409   -0.3060 C   0  0  0  0  0  0  0  0  0  0  0  0
    3.3079    0.6909    0.5825 C   0  0  0  0  0  0  0  0  0  0  0  0
    4.4427   -0.9707   -0.7550 C   0  0  0  0  0  0  0  0  0  0  0  0
    4.4844    1.4370    0.6539 C   0  0  0  0  0  0  0  0  0  0  0  0
    5.6190   -0.2246   -0.6839 C   0  0  0  0  0  0  0  0  0  0  0  0
    5.6400    0.9792    0.0207 C   0  0  0  0  0  0  0  0  0  0  0  0
   -4.1862   -1.3972    2.8253 C   0  0  0  0  0  0  0  0  0  0  0  0
   -2.3017    2.3307   -2.9976 C   0  0  0  0  0  0  0  0  0  0  0  0
   -5.1310    2.7694    0.7774 C   0  0  0  0  0  0  0  0  0  0  0  0
    5.7419    3.3230    1.3730 C   0  0  0  0  0  0  0  0  0  0  0  0
   -1.0766    0.6195   -1.8898 H   0  0  0  0  0  0  0  0  0  0  0  0
   -2.1838   -1.5718    1.5549 H   0  0  0  0  0  0  0  0  0  0  0  0
    3.0091   -3.2279   -0.3162 H   0  0  0  0  0  0  0  0  0  0  0  0
    1.0350   -4.3835   -0.4912 H   0  0  0  0  0  0  0  0  0  0  0  0
    2.4208    1.0627    1.0903 H   0  0  0  0  0  0  0  0  0  0  0  0
    4.4640   -1.8886   -1.3359 H   0  0  0  0  0  0  0  0  0  0  0  0
    6.5170   -0.5784   -1.1823 H   0  0  0  0  0  0  0  0  0  0  0  0
    6.5866    1.5084    0.0343 H   0  0  0  0  0  0  0  0  0  0  0  0
   -4.0805   -2.3725    2.3380 H   0  0  0  0  0  0  0  0  0  0  0  0
   -3.2957   -1.1172    3.3984 H   0  0  0  0  0  0  0  0  0  0  0  0
   -5.0085   -1.4890    3.5426 H   0  0  0  0  0  0  0  0  0  0  0  0
   -1.3647    2.6965   -2.5637 H   0  0  0  0  0  0  0  0  0  0  0  0
   -2.1547    1.4436   -3.6230 H   0  0  0  0  0  0  0  0  0  0  0  0
   -2.6770    3.1226   -3.6543 H   0  0  0  0  0  0  0  0  0  0  0  0
   -6.1345    3.2008    0.7287 H   0  0  0  0  0  0  0  0  0  0  0  0
   -4.4193    3.4929    0.3671 H   0  0  0  0  0  0  0  0  0  0  0  0
   -4.8911    2.5597    1.8246 H   0  0  0  0  0  0  0  0  0  0  0  0
    5.5770    4.2314    1.9617 H   0  0  0  0  0  0  0  0  0  0  0  0
    6.0482    3.6427    0.3712 H   0  0  0  0  0  0  0  0  0  0  0  0
    6.5232    2.7492    1.8829 H   0  0  0  0  0  0  0  0  0  0  0  0
  1 13  1  0  0  0  0
  1 24  1  0  0  0  0
  2 14  1  0  0  0  0
  2 25  1  0  0  0  0
  3 15  1  0  0  0  0
  3 26  1  0  0  0  0
  4 17  2  0  0  0  0
  5 21  1  0  0  0  0
  5 27  1  0  0  0  0
  6  9  2  0  0  0  0
  6 10  1  0  0  0  0
  7 17  1  0  0  0  0
  7 18  1  0  0  0  0
  7 31  1  0  0  0  0
  8  9  1  0  0  0  0
  8 11  2  0  0  0  0
  8 12  1  0  0  0  0
  9 17  1  0  0  0  0
 10 16  1  0  0  0  0
 10 18  2  0  0  0  0
 11 14  1  0  0  0  0
 11 28  1  0  0  0  0
 12 13  2  0  0  0  0
 12 29  1  0  0  0  0
 13 15  1  0  0  0  0
 14 15  2  0  0  0  0
 16 19  2  0  0  0  0
 16 20  1  0  0  0  0
 18 30  1  0  0  0  0
 19 21  1  0  0  0  0
 19 32  1  0  0  0  0
 20 22  2  0  0  0  0
 20 33  1  0  0  0  0
 21 23  2  0  0  0  0
 22 23  1  0  0  0  0
 22 34  1  0  0  0  0
 23 35  1  0  0  0  0
 24 36  1  0  0  0  0
 24 37  1  0  0  0  0
 24 38  1  0  0  0  0
 25 39  1  0  0  0  0
 25 40  1  0  0  0  0
 25 41  1  0  0  0  0
 26 42  1  0  0  0  0
 26 43  1  0  0  0  0
 26 44  1  0  0  0  0
 27 45  1  0  0  0  0
 27 46  1  0  0  0  0
 27 47  1  0  0  0  0
M  END
> <PUBCHEM_COMPOUND_CID>
102431711

> <PUBCHEM_CONFORMER_RMSD>
0.8

> <PUBCHEM_CONFORMER_DIVERSEORDER>
9
5
24
31
15
38
16
25
34
6
30
23
37
12
32
36
22
17
33
7
10
19
13
20
35
8
4
18
28
14
27
21
3
26
29
11
1
2

> <PUBCHEM_MMFF94_PARTIAL_CHARGES>
35
1 -0.36
10 0.14
11 -0.15
12 -0.15
13 0.08
14 0.08
15 0.08
16 0.03
17 0.63
18 -0.04
19 -0.15
2 -0.36
20 -0.15
21 0.08
22 -0.15
23 -0.15
24 0.28
25 0.28
26 0.28
27 0.28
28 0.15
29 0.15
3 -0.36
30 0.15
31 0.37
32 0.15
33 0.15
34 0.15
35 0.15
4 -0.57
5 -0.36
6 -0.62
7 -0.54
8 0.09
9 0.36

> <PUBCHEM_EFFECTIVE_ROTOR_COUNT>
6

> <PUBCHEM_PHARMACOPHORE_FEATURES>
10
1 1 acceptor
1 2 acceptor
1 3 acceptor
1 4 acceptor
1 5 acceptor
1 6 acceptor
1 7 donor
6 16 19 20 21 22 23 rings
6 6 7 9 10 17 18 rings
6 8 11 12 13 14 15 rings

> <PUBCHEM_HEAVY_ATOM_COUNT>
27

> <PUBCHEM_ATOM_DEF_STEREO_COUNT>
0

> <PUBCHEM_ATOM_UDEF_STEREO_COUNT>
0

> <PUBCHEM_BOND_DEF_STEREO_COUNT>
0

> <PUBCHEM_BOND_UDEF_STEREO_COUNT>
0

> <PUBCHEM_ISOTOPIC_ATOM_COUNT>
0

> <PUBCHEM_COMPONENT_COUNT>
1

> <PUBCHEM_CACTVS_TAUTO_COUNT>
5

> <PUBCHEM_CONFORMER_ID>
061AFBDF00000009

> <PUBCHEM_MMFF94_ENERGY>
124.1263

> <PUBCHEM_FEATURE_SELFOVERLAP>
50.759

> <PUBCHEM_SHAPE_FINGERPRINT>
10165383 225 18410299081807039110
10319926 262 17603860062475539874
11595378 159 16226327010683766588
12390115 104 18057053621312066714
12403259 118 17894918459262897982
12403259 415 18411707603642097386
12422481 6 17894920615511106157
12892183 10 17530679901193587474
12925494 130 18338803291257337329
13034934 17 18334017189817669335
13583140 156 16733525200721751862
14848178 96 18130499821295049408
14950920 106 16588564488536907136
1768 210 17415256598041518320
1813 80 11891618957898961666
19309040 13 17058949929354308800
20645477 56 18410293635978697542
21033648 144 18201150062029710076
21033648 29 18411132550365653024
21033650 10 13613979819690834546
21223535 225 17488477291014414280
21756936 100 17060069141675208179
22122407 14 17916315943957475681
23559900 14 17605854516075494127
2838139 119 18273210902783176180
3187 122 17603305981429079229
376196 1 17609752233498335733
4371632 12 17912329247591206461
469060 322 18116150163586887047
497634 4 17846492673500106207
5104073 3 18115596937317696163
5252454 2 18409444787263782310
56638632 10 17987805253676880433
59755656 520 17632030705145621062
633830 44 18060133206983138956
7808743 9 18267014149975915592

> <PUBCHEM_SHAPE_MULTIPOLES>
516.34
13.5
3.75
1.89
8.55
0.34
0.08
-10.88
-4.72
0.87
0.15
-2.52
-1.04
3.62

> <PUBCHEM_SHAPE_SELFOVERLAP>
1118.732

> <PUBCHEM_SHAPE_VOLUME>
283

> <PUBCHEM_COORDINATE_TYPE>
2
5
10

$$$$
