74163
  -OEChem-02172602443D

 36 35  0     0  0  0  0  0  0999 V2000
    7.8933   -0.6088   -0.0528 Br  0  0  0  0  0  0  0  0  0  0  0  0
   -7.5128   -0.4551   -0.0557 O   0  0  0  0  0  0  0  0  0  0  0  0
   -0.0177   -0.3860    0.0220 C   0  0  0  0  0  0  0  0  0  0  0  0
   -1.2913    0.4624    0.0313 C   0  0  0  0  0  0  0  0  0  0  0  0
    1.2337    0.4945   -0.0095 C   0  0  0  0  0  0  0  0  0  0  0  0
   -2.5767   -0.3688    0.0749 C   0  0  0  0  0  0  0  0  0  0  0  0
    2.5089   -0.3499    0.0144 C   0  0  0  0  0  0  0  0  0  0  0  0
   -3.8510    0.4768    0.0101 C   0  0  0  0  0  0  0  0  0  0  0  0
    3.7601    0.5315    0.0177 C   0  0  0  0  0  0  0  0  0  0  0  0
   -5.1028   -0.4071    0.0267 C   0  0  0  0  0  0  0  0  0  0  0  0
    5.0359   -0.3172   -0.0056 C   0  0  0  0  0  0  0  0  0  0  0  0
   -6.3862    0.4097   -0.0637 C   0  0  0  0  0  0  0  0  0  0  0  0
    6.3067    0.5181   -0.0098 C   0  0  0  0  0  0  0  0  0  0  0  0
   -0.0245   -1.0499   -0.8509 H   0  0  0  0  0  0  0  0  0  0  0  0
    0.0015   -1.0237    0.9140 H   0  0  0  0  0  0  0  0  0  0  0  0
   -1.2739    1.1369    0.8963 H   0  0  0  0  0  0  0  0  0  0  0  0
   -1.3057    1.0966   -0.8639 H   0  0  0  0  0  0  0  0  0  0  0  0
    1.2272    1.1715    0.8535 H   0  0  0  0  0  0  0  0  0  0  0  0
    1.2221    1.1193   -0.9109 H   0  0  0  0  0  0  0  0  0  0  0  0
   -2.5720   -1.0751   -0.7648 H   0  0  0  0  0  0  0  0  0  0  0  0
   -2.5846   -0.9692    0.9930 H   0  0  0  0  0  0  0  0  0  0  0  0
    2.5254   -1.0110   -0.8605 H   0  0  0  0  0  0  0  0  0  0  0  0
    2.5109   -0.9909    0.9043 H   0  0  0  0  0  0  0  0  0  0  0  0
   -3.8423    1.0831   -0.9035 H   0  0  0  0  0  0  0  0  0  0  0  0
   -3.8765    1.1694    0.8597 H   0  0  0  0  0  0  0  0  0  0  0  0
    3.7480    1.1936   -0.8566 H   0  0  0  0  0  0  0  0  0  0  0  0
    3.7606    1.1705    0.9089 H   0  0  0  0  0  0  0  0  0  0  0  0
   -5.0721   -1.1209   -0.8060 H   0  0  0  0  0  0  0  0  0  0  0  0
   -5.1243   -1.0145    0.9402 H   0  0  0  0  0  0  0  0  0  0  0  0
    5.0216   -0.9647   -0.8917 H   0  0  0  0  0  0  0  0  0  0  0  0
    5.0402   -0.9855    0.8650 H   0  0  0  0  0  0  0  0  0  0  0  0
   -6.4066    0.9947   -0.9889 H   0  0  0  0  0  0  0  0  0  0  0  0
   -6.4686    1.0936    0.7872 H   0  0  0  0  0  0  0  0  0  0  0  0
    6.3620    1.1627   -0.8915 H   0  0  0  0  0  0  0  0  0  0  0  0
    6.3877    1.1327    0.8911 H   0  0  0  0  0  0  0  0  0  0  0  0
   -8.3044    0.1066   -0.1145 H   0  0  0  0  0  0  0  0  0  0  0  0
  1 13  1  0  0  0  0
  2 12  1  0  0  0  0
  2 36  1  0  0  0  0
  3  4  1  0  0  0  0
  3  5  1  0  0  0  0
  3 14  1  0  0  0  0
  3 15  1  0  0  0  0
  4  6  1  0  0  0  0
  4 16  1  0  0  0  0
  4 17  1  0  0  0  0
  5  7  1  0  0  0  0
  5 18  1  0  0  0  0
  5 19  1  0  0  0  0
  6  8  1  0  0  0  0
  6 20  1  0  0  0  0
  6 21  1  0  0  0  0
  7  9  1  0  0  0  0
  7 22  1  0  0  0  0
  7 23  1  0  0  0  0
  8 10  1  0  0  0  0
  8 24  1  0  0  0  0
  8 25  1  0  0  0  0
  9 11  1  0  0  0  0
  9 26  1  0  0  0  0
  9 27  1  0  0  0  0
 10 12  1  0  0  0  0
 10 28  1  0  0  0  0
 10 29  1  0  0  0  0
 11 13  1  0  0  0  0
 11 30  1  0  0  0  0
 11 31  1  0  0  0  0
 12 32  1  0  0  0  0
 12 33  1  0  0  0  0
 13 34  1  0  0  0  0
 13 35  1  0  0  0  0
M  END
> <PUBCHEM_COMPOUND_CID>
74163

> <PUBCHEM_CONFORMER_RMSD>
1

> <PUBCHEM_CONFORMER_DIVERSEORDER>
1
708
33
448
13
1017
825
946
374
25
654
838
45
464
1112
57
184
49
712
815
689
8
770
81
1034
1104
195
1103
154
320
561
1012
113
37
760
817
11
473
632
253
101
709
328
15
299
867
94
34
207
10
146
1066
650
170
982
86
72
974
688
269
425
373
54
200
43
1002
644
390
896
1050
221
957
122
247
2
592
549
902
365
80
941
232
870
1032
631
190
528
1089
505
759
275
475
741
85
1060
542
881
238
330
942
319
430
224
192
616
352
453
84
736
173
96
457
348
656
270
396
874
335
1038
829
808
160
1030
306
445
871
621
4
38
921
375
1022
559
465
672
76
602
79
1092
884
1087
801
899
9
789
613
354
1069
692
420
70
1010
735
516
1058
302
727
1047
426
936
197
714
292
706
444
376
772
960
715
202
732
1041
966
265
710
975
731
593
771
325
719
1063
508
570
704

> <PUBCHEM_MMFF94_PARTIAL_CHARGES>
5
1 -0.23
12 0.28
13 0.23
2 -0.68
36 0.4

> <PUBCHEM_EFFECTIVE_ROTOR_COUNT>
10

> <PUBCHEM_PHARMACOPHORE_FEATURES>
3
1 1 hydrophobe
1 2 acceptor
1 2 donor

> <PUBCHEM_HEAVY_ATOM_COUNT>
13

> <PUBCHEM_ATOM_DEF_STEREO_COUNT>
0

> <PUBCHEM_ATOM_UDEF_STEREO_COUNT>
0

> <PUBCHEM_BOND_DEF_STEREO_COUNT>
0

> <PUBCHEM_BOND_UDEF_STEREO_COUNT>
0

> <PUBCHEM_ISOTOPIC_ATOM_COUNT>
0

> <PUBCHEM_COMPONENT_COUNT>
1

> <PUBCHEM_CACTVS_TAUTO_COUNT>
1

> <PUBCHEM_CONFORMER_ID>
000121B300000001

> <PUBCHEM_MMFF94_ENERGY>
-0.2149

> <PUBCHEM_FEATURE_SELFOVERLAP>
15.223

> <PUBCHEM_SHAPE_FINGERPRINT>
12091667 2 18113900460127925833
13533116 47 16443333253240691504
14123256 10 18411138030321545931
14251764 18 18333449824653568802
14251764 46 18410856559639802562
17834076 25 18410292514474995520
18006028 8 18131632283368789544
20281389 69 18334010597354437660
20621476 8 18040996224070531062
22224240 67 14333404549957646476
23035841 295 17846779611216462822
23402539 116 18342734139218901991
23521765 1 18341895190350960096
28498 318 18409166580899621614
33532 11 18409446952128298506
33684 2 18410573980861771595
42788 4 18410575088958208625
57583515 80 18260831501249975865
8209 1 18410573985156738900

> <PUBCHEM_SHAPE_MULTIPOLES>
267.61
23.4
0.83
0.62
1.07
0
0
-2.65
-0.6
0.26
0
0.13
0
0.03

> <PUBCHEM_SHAPE_SELFOVERLAP>
462.954

> <PUBCHEM_SHAPE_VOLUME>
178.8

> <PUBCHEM_COORDINATE_TYPE>
2
5
10

$$$$
