74400
  -OEChem-02172602363D

 24 23  0     0  0  0  0  0  0999 V2000
    0.5856   -0.4877    0.0071 C   0  0  0  0  0  0  0  0  0  0  0  0
   -0.5701    0.5153    0.0202 C   0  0  0  0  0  0  0  0  0  0  0  0
    1.9397    0.2233   -0.0251 C   0  0  0  0  0  0  0  0  0  0  0  0
   -1.9254   -0.1998    0.0100 C   0  0  0  0  0  0  0  0  0  0  0  0
    3.0947   -0.7778   -0.0044 C   0  0  0  0  0  0  0  0  0  0  0  0
   -3.1089    0.7691   -0.0078 C   0  0  0  0  0  0  0  0  0  0  0  0
    4.3928   -0.0893    0.0011 C   0  0  0  0  0  0  0  0  0  0  0  0
   -4.4023    0.0713   -0.0042 C   0  0  0  0  0  0  0  0  0  0  0  0
    5.4549    0.4702    0.0054 C   0  0  0  0  0  0  0  0  0  0  0  0
   -5.4611   -0.4946   -0.0022 C   0  0  0  0  0  0  0  0  0  0  0  0
    0.4961   -1.1423   -0.8684 H   0  0  0  0  0  0  0  0  0  0  0  0
    0.5249   -1.1266    0.8965 H   0  0  0  0  0  0  0  0  0  0  0  0
   -0.4976    1.1525    0.9097 H   0  0  0  0  0  0  0  0  0  0  0  0
   -0.4980    1.1714   -0.8557 H   0  0  0  0  0  0  0  0  0  0  0  0
    2.0067    0.8501   -0.9236 H   0  0  0  0  0  0  0  0  0  0  0  0
    2.0196    0.8984    0.8368 H   0  0  0  0  0  0  0  0  0  0  0  0
   -1.9827   -0.8582   -0.8667 H   0  0  0  0  0  0  0  0  0  0  0  0
   -1.9983   -0.8500    0.8916 H   0  0  0  0  0  0  0  0  0  0  0  0
    3.0318   -1.4356   -0.8791 H   0  0  0  0  0  0  0  0  0  0  0  0
    3.0180   -1.4159    0.8838 H   0  0  0  0  0  0  0  0  0  0  0  0
   -3.0526    1.4308    0.8647 H   0  0  0  0  0  0  0  0  0  0  0  0
   -3.0445    1.4090   -0.8958 H   0  0  0  0  0  0  0  0  0  0  0  0
    6.3971    0.9667    0.0091 H   0  0  0  0  0  0  0  0  0  0  0  0
   -6.4002   -0.9968   -0.0005 H   0  0  0  0  0  0  0  0  0  0  0  0
  1  2  1  0  0  0  0
  1  3  1  0  0  0  0
  1 11  1  0  0  0  0
  1 12  1  0  0  0  0
  2  4  1  0  0  0  0
  2 13  1  0  0  0  0
  2 14  1  0  0  0  0
  3  5  1  0  0  0  0
  3 15  1  0  0  0  0
  3 16  1  0  0  0  0
  4  6  1  0  0  0  0
  4 17  1  0  0  0  0
  4 18  1  0  0  0  0
  5  7  1  0  0  0  0
  5 19  1  0  0  0  0
  5 20  1  0  0  0  0
  6  8  1  0  0  0  0
  6 21  1  0  0  0  0
  6 22  1  0  0  0  0
  7  9  3  0  0  0  0
  8 10  3  0  0  0  0
  9 23  1  0  0  0  0
 10 24  1  0  0  0  0
M  END
> <PUBCHEM_COMPOUND_CID>
74400

> <PUBCHEM_CONFORMER_RMSD>
0.6

> <PUBCHEM_CONFORMER_DIVERSEORDER>
1
36
10
12
34
27
52
26
13
53
20
50
33
5
32
18
6
4
46
31
44
25
16
51
29
47
22
8
35
24
2
49
17
45
23
28
14
39
7
40
15
3
41
48
42
21
43
11
38
19
9
30
37

> <PUBCHEM_MMFF94_PARTIAL_CHARGES>
8
10 -0.18
23 0.18
24 0.18
5 0.2
6 0.2
7 -0.2
8 -0.2
9 -0.18

> <PUBCHEM_EFFECTIVE_ROTOR_COUNT>
5

> <PUBCHEM_PHARMACOPHORE_FEATURES>
2
1 10 hydrophobe
1 9 hydrophobe

> <PUBCHEM_HEAVY_ATOM_COUNT>
10

> <PUBCHEM_ATOM_DEF_STEREO_COUNT>
0

> <PUBCHEM_ATOM_UDEF_STEREO_COUNT>
0

> <PUBCHEM_BOND_DEF_STEREO_COUNT>
0

> <PUBCHEM_BOND_UDEF_STEREO_COUNT>
0

> <PUBCHEM_ISOTOPIC_ATOM_COUNT>
0

> <PUBCHEM_COMPONENT_COUNT>
1

> <PUBCHEM_CACTVS_TAUTO_COUNT>
1

> <PUBCHEM_CONFORMER_ID>
000122A000000001

> <PUBCHEM_MMFF94_ENERGY>
0.4752

> <PUBCHEM_FEATURE_SELFOVERLAP>
10.149

> <PUBCHEM_SHAPE_FINGERPRINT>
11062470 55 18409449172309145320
11287383 113 18408887368843025296
11401426 45 14201399391281411353
114248 4 18410573985151451169
12815109 37 18113899364083077341
14123238 8 18410573985151451158
1420 363 18411143536649207867
14251718 22 18334857238059991235
17834072 33 18411981403058667028
17834076 25 17275105033302898822
187816 3 15791732996875311657
20279233 1 17531256036569714698
20645477 70 18200033933063176782
20719005 15 18410856559660901568
20767249 13 16008749108417425048
20767249 213 18040999570425151924
22485316 2 18113335297485865803
22896161 15 18339360880763758623
23402539 116 12612753540553154475
366044 4 18334575750109130346
42788 4 18410856555355417252

> <PUBCHEM_SHAPE_MULTIPOLES>
205.8
13.18
0.84
0.62
0.13
0
0
0.1
-0.01
0.01
0
0
0
0

> <PUBCHEM_SHAPE_SELFOVERLAP>
372.415

> <PUBCHEM_SHAPE_VOLUME>
130.4

> <PUBCHEM_COORDINATE_TYPE>
2
5
10

$$$$
