5274271
  -OEChem-02172602593D

 13 14  0     0  0  0  0  0  0999 V2000
    0.1343   -2.6727    0.0005 O   0  0  0  0  0  0  0  0  0  0  0  0
    2.9331    1.0269   -0.0004 O   0  0  0  0  0  0  0  0  0  0  0  0
    1.5799   -0.8133    0.0001 N   0  0  0  0  0  0  0  0  0  0  0  0
    0.6840    1.4498    0.0001 N   0  0  0  0  0  0  0  0  0  0  0  0
   -1.9996   -0.7036   -0.0003 N   0  0  0  0  0  0  0  0  0  0  0  0
   -1.7069    1.5779    0.0003 N   0  0  0  0  0  0  0  0  0  0  0  0
   -0.7251   -0.4984   -0.0005 C   0  0  0  0  0  0  0  0  0  0  0  0
   -0.4989    0.9447    0.0003 C   0  0  0  0  0  0  0  0  0  0  0  0
    0.3645   -1.4792   -0.0002 C   0  0  0  0  0  0  0  0  0  0  0  0
    1.7799    0.5892    0.0003 C   0  0  0  0  0  0  0  0  0  0  0  0
   -2.5453    0.5788   -0.0001 C   0  0  0  0  0  0  0  0  0  0  0  0
    2.4173   -1.3889    0.0003 H   0  0  0  0  0  0  0  0  0  0  0  0
   -3.6366    0.7188   -0.0002 H   0  0  0  0  0  0  0  0  0  0  0  0
  1  9  2  0  0  0  0
  2 10  2  0  0  0  0
  3  9  1  0  0  0  0
  3 10  1  0  0  0  0
  3 12  1  0  0  0  0
  4  8  2  0  0  0  0
  4 10  1  0  0  0  0
  5  7  2  0  0  0  0
  5 11  1  0  0  0  0
  6  8  1  0  0  0  0
  6 11  2  0  0  0  0
  7  8  1  0  0  0  0
  7  9  1  0  0  0  0
 11 13  1  0  0  0  0
M  END
> <PUBCHEM_COMPOUND_CID>
5274271

> <PUBCHEM_CONFORMER_RMSD>
0.4

> <PUBCHEM_CONFORMER_DIVERSEORDER>
1

> <PUBCHEM_MMFF94_PARTIAL_CHARGES>
13
1 -0.57
10 0.84
11 0.6
12 0.37
13 0.06
2 -0.57
3 -0.49
4 -0.66
5 -0.66
6 -0.66
7 0.45
8 0.66
9 0.63

> <PUBCHEM_EFFECTIVE_ROTOR_COUNT>
0.2

> <PUBCHEM_PHARMACOPHORE_FEATURES>
8
1 1 acceptor
1 2 acceptor
1 3 donor
1 4 donor
1 5 acceptor
3 5 6 11 cation
5 5 6 7 8 11 rings
6 3 4 7 8 9 10 rings

> <PUBCHEM_HEAVY_ATOM_COUNT>
11

> <PUBCHEM_ATOM_DEF_STEREO_COUNT>
0

> <PUBCHEM_ATOM_UDEF_STEREO_COUNT>
0

> <PUBCHEM_BOND_DEF_STEREO_COUNT>
0

> <PUBCHEM_BOND_UDEF_STEREO_COUNT>
0

> <PUBCHEM_ISOTOPIC_ATOM_COUNT>
0

> <PUBCHEM_COMPONENT_COUNT>
1

> <PUBCHEM_CACTVS_TAUTO_COUNT>
3

> <PUBCHEM_CONFORMER_ID>
00507A9F00000001

> <PUBCHEM_MMFF94_ENERGY>
30.0859

> <PUBCHEM_FEATURE_SELFOVERLAP>
40.772

> <PUBCHEM_SHAPE_FINGERPRINT>
14325111 11 18410856572772916612
16945 1 18266458904550023940
18185500 45 17834677097766840947
193761 8 17762338015893758660
20871998 184 17840033166930009894
21040471 1 18410856607127152864
23235685 24 18410006662932164329
23402655 69 18268412574427459125
23552423 10 18193559965189644351
241688 4 16753811963037232434
2748010 2 18410014312300307334
5084963 1 18130791195501275648
528886 8 18410849971323656865

> <PUBCHEM_SHAPE_MULTIPOLES>
194.71
3.12
2.07
0.56
0.24
1.11
0
-1.24
0
0.28
0
-0.02
0
0

> <PUBCHEM_SHAPE_SELFOVERLAP>
431.867

> <PUBCHEM_SHAPE_VOLUME>
103.9

> <PUBCHEM_COORDINATE_TYPE>
2
5
10

$$$$
