580381
  -OEChem-02172602233D

 18 18  0     0  0  0  0  0  0999 V2000
    0.2600   -0.5530   -0.2323 O   0  0  0  0  0  0  0  0  0  0  0  0
    3.2654   -0.9363    0.7378 O   0  0  0  0  0  0  0  0  0  0  0  0
   -3.1398    0.4012    0.2531 O   0  0  0  0  0  0  0  0  0  0  0  0
    1.3841    0.2101   -0.2542 C   0  0  0  0  0  0  0  0  0  0  0  0
   -0.7803    0.2936   -0.0138 C   0  0  0  0  0  0  0  0  0  0  0  0
    1.0729    1.5347   -0.0523 C   0  0  0  0  0  0  0  0  0  0  0  0
   -0.3328    1.5889    0.1038 C   0  0  0  0  0  0  0  0  0  0  0  0
    2.6494   -0.5025   -0.4809 C   0  0  0  0  0  0  0  0  0  0  0  0
   -2.0883   -0.2626    0.0550 C   0  0  0  0  0  0  0  0  0  0  0  0
   -2.2908   -1.7741   -0.1163 C   0  0  0  0  0  0  0  0  0  0  0  0
    1.7700    2.3598   -0.0211 H   0  0  0  0  0  0  0  0  0  0  0  0
   -0.9391    2.4660    0.2802 H   0  0  0  0  0  0  0  0  0  0  0  0
    2.4857   -1.3864   -1.1065 H   0  0  0  0  0  0  0  0  0  0  0  0
    3.3612    0.1478   -1.0007 H   0  0  0  0  0  0  0  0  0  0  0  0
   -1.9326   -2.0814   -1.1026 H   0  0  0  0  0  0  0  0  0  0  0  0
   -3.3539   -2.0185   -0.0353 H   0  0  0  0  0  0  0  0  0  0  0  0
   -1.7457   -2.3071    0.6672 H   0  0  0  0  0  0  0  0  0  0  0  0
    4.0897   -1.3899    0.4918 H   0  0  0  0  0  0  0  0  0  0  0  0
  1  4  1  0  0  0  0
  1  5  1  0  0  0  0
  2  8  1  0  0  0  0
  2 18  1  0  0  0  0
  3  9  2  0  0  0  0
  4  6  2  0  0  0  0
  4  8  1  0  0  0  0
  5  7  2  0  0  0  0
  5  9  1  0  0  0  0
  6  7  1  0  0  0  0
  6 11  1  0  0  0  0
  7 12  1  0  0  0  0
  8 13  1  0  0  0  0
  8 14  1  0  0  0  0
  9 10  1  0  0  0  0
 10 15  1  0  0  0  0
 10 16  1  0  0  0  0
 10 17  1  0  0  0  0
M  END
> <PUBCHEM_COMPOUND_CID>
580381

> <PUBCHEM_CONFORMER_RMSD>
0.4

> <PUBCHEM_CONFORMER_DIVERSEORDER>
1
11
8
5
9
4
13
15
6
10
7
12
14
16
3
2

> <PUBCHEM_MMFF94_PARTIAL_CHARGES>
13
1 -0.28
10 0.06
11 0.15
12 0.15
18 0.4
2 -0.68
3 -0.57
4 -0.04
5 0.05
6 -0.15
7 -0.15
8 0.46
9 0.59

> <PUBCHEM_EFFECTIVE_ROTOR_COUNT>
2

> <PUBCHEM_PHARMACOPHORE_FEATURES>
5
1 1 acceptor
1 2 acceptor
1 2 donor
1 3 acceptor
5 1 4 5 6 7 rings

> <PUBCHEM_HEAVY_ATOM_COUNT>
10

> <PUBCHEM_ATOM_DEF_STEREO_COUNT>
0

> <PUBCHEM_ATOM_UDEF_STEREO_COUNT>
0

> <PUBCHEM_BOND_DEF_STEREO_COUNT>
0

> <PUBCHEM_BOND_UDEF_STEREO_COUNT>
0

> <PUBCHEM_ISOTOPIC_ATOM_COUNT>
0

> <PUBCHEM_COMPONENT_COUNT>
1

> <PUBCHEM_CACTVS_TAUTO_COUNT>
2

> <PUBCHEM_CONFORMER_ID>
0008DB1D00000001

> <PUBCHEM_MMFF94_ENERGY>
8.7874

> <PUBCHEM_FEATURE_SELFOVERLAP>
25.373

> <PUBCHEM_SHAPE_FINGERPRINT>
10130415 120 18410295800278120361
10857977 72 18272642442223157930
12932764 1 18040152933069839421
14128692 85 18337116755956307300
16945 1 18341902839751186805
20653091 64 18266462190242340016
21040471 1 17980766261349274981
21501925 9 18269263724263201402
23552423 10 18189903204137458213
2748010 2 18268148832563214869
29004967 10 18202289112419433532
3248919 1 17561094617526105949

> <PUBCHEM_SHAPE_MULTIPOLES>
188.19
4.44
1.61
0.67
0.23
0.11
0.01
-1.87
0.43
-0.18
0.04
0.21
-0.06
-0.23

> <PUBCHEM_SHAPE_SELFOVERLAP>
386.313

> <PUBCHEM_SHAPE_VOLUME>
110.3

> <PUBCHEM_COORDINATE_TYPE>
2
5
10

$$$$
