6040
  -OEChem-02172602483D

 36 38  0     1  0  0  0  0  0999 V2000
    1.0919   -1.2678   -0.0982 O   0  0  0  0  0  0  0  0  0  0  0  0
    1.3469    1.5074    0.6349 O   0  0  0  0  0  0  0  0  0  0  0  0
   -2.4600   -0.3266    0.2748 N   0  0  0  0  0  0  0  0  0  0  0  0
   -2.6405    0.3676   -1.0080 C   0  0  0  0  0  0  0  0  0  0  0  0
   -3.6478   -1.1194    0.6214 C   0  0  0  0  0  0  0  0  0  0  0  0
   -3.8521    1.2998   -0.9651 C   0  0  0  0  0  0  0  0  0  0  0  0
   -4.8926   -0.2357    0.7177 C   0  0  0  0  0  0  0  0  0  0  0  0
   -1.2711   -1.1776    0.2331 C   0  0  0  0  0  0  0  0  0  0  0  0
   -5.1178    0.5467   -0.5710 C   0  0  0  0  0  0  0  0  0  0  0  0
   -0.0217   -0.3642   -0.0711 C   0  0  1  0  0  0  0  0  0  0  0  0
    0.2126    0.7080    0.9848 C   0  0  0  0  0  0  0  0  0  0  0  0
    2.2921   -0.6075   -0.0964 C   0  0  0  0  0  0  0  0  0  0  0  0
    2.4141    0.7403    0.2483 C   0  0  0  0  0  0  0  0  0  0  0  0
    3.4234   -1.3438   -0.4492 C   0  0  0  0  0  0  0  0  0  0  0  0
    3.6609    1.3643    0.1981 C   0  0  0  0  0  0  0  0  0  0  0  0
    4.6720   -0.7226   -0.4860 C   0  0  0  0  0  0  0  0  0  0  0  0
    4.7897    0.6308   -0.1681 C   0  0  0  0  0  0  0  0  0  0  0  0
   -2.7531   -0.3495   -1.8316 H   0  0  0  0  0  0  0  0  0  0  0  0
   -1.7963    1.0192   -1.2480 H   0  0  0  0  0  0  0  0  0  0  0  0
   -3.4993   -1.6055    1.5933 H   0  0  0  0  0  0  0  0  0  0  0  0
   -3.8174   -1.9134   -0.1179 H   0  0  0  0  0  0  0  0  0  0  0  0
   -1.1371   -1.6855    1.1978 H   0  0  0  0  0  0  0  0  0  0  0  0
   -1.3763   -1.9781   -0.5121 H   0  0  0  0  0  0  0  0  0  0  0  0
   -3.9935    1.7701   -1.9450 H   0  0  0  0  0  0  0  0  0  0  0  0
   -3.6695    2.1083   -0.2456 H   0  0  0  0  0  0  0  0  0  0  0  0
   -4.7822    0.4642    1.5557 H   0  0  0  0  0  0  0  0  0  0  0  0
   -5.7708   -0.8551    0.9322 H   0  0  0  0  0  0  0  0  0  0  0  0
   -5.9496    1.2484   -0.4451 H   0  0  0  0  0  0  0  0  0  0  0  0
   -5.3976   -0.1449   -1.3751 H   0  0  0  0  0  0  0  0  0  0  0  0
   -0.0547    0.0731   -1.0755 H   0  0  0  0  0  0  0  0  0  0  0  0
   -0.6356    1.3941    1.0689 H   0  0  0  0  0  0  0  0  0  0  0  0
    0.3917    0.2716    1.9762 H   0  0  0  0  0  0  0  0  0  0  0  0
    3.3392   -2.3961   -0.7067 H   0  0  0  0  0  0  0  0  0  0  0  0
    3.7629    2.4157    0.4527 H   0  0  0  0  0  0  0  0  0  0  0  0
    5.5531   -1.2922   -0.7667 H   0  0  0  0  0  0  0  0  0  0  0  0
    5.7624    1.1130   -0.2015 H   0  0  0  0  0  0  0  0  0  0  0  0
  1 10  1  0  0  0  0
  1 12  1  0  0  0  0
  2 11  1  0  0  0  0
  2 13  1  0  0  0  0
  3  4  1  0  0  0  0
  3  5  1  0  0  0  0
  3  8  1  0  0  0  0
  4  6  1  0  0  0  0
  4 18  1  0  0  0  0
  4 19  1  0  0  0  0
  5  7  1  0  0  0  0
  5 20  1  0  0  0  0
  5 21  1  0  0  0  0
  6  9  1  0  0  0  0
  6 24  1  0  0  0  0
  6 25  1  0  0  0  0
  7  9  1  0  0  0  0
  7 26  1  0  0  0  0
  7 27  1  0  0  0  0
  8 10  1  0  0  0  0
  8 22  1  0  0  0  0
  8 23  1  0  0  0  0
  9 28  1  0  0  0  0
  9 29  1  0  0  0  0
 10 11  1  0  0  0  0
 10 30  1  0  0  0  0
 11 31  1  0  0  0  0
 11 32  1  0  0  0  0
 12 13  1  0  0  0  0
 12 14  2  0  0  0  0
 13 15  2  0  0  0  0
 14 16  1  0  0  0  0
 14 33  1  0  0  0  0
 15 17  1  0  0  0  0
 15 34  1  0  0  0  0
 16 17  2  0  0  0  0
 16 35  1  0  0  0  0
 17 36  1  0  0  0  0
M  END
> <PUBCHEM_COMPOUND_CID>
6040

> <PUBCHEM_CONFORMER_RMSD>
0.6

> <PUBCHEM_CONFORMER_DIVERSEORDER>
1
19
8
16
18
4
6
17
14
10
5
3
20
9
15
11
2
13
7
12

> <PUBCHEM_MMFF94_PARTIAL_CHARGES>
18
1 -0.36
10 0.28
11 0.28
12 0.08
13 0.08
14 -0.15
15 -0.15
16 -0.15
17 -0.15
2 -0.36
3 -0.81
33 0.15
34 0.15
35 0.15
36 0.15
4 0.27
5 0.27
8 0.27

> <PUBCHEM_EFFECTIVE_ROTOR_COUNT>
4

> <PUBCHEM_PHARMACOPHORE_FEATURES>
6
1 1 acceptor
1 2 acceptor
1 3 cation
6 1 2 10 11 12 13 rings
6 12 13 14 15 16 17 rings
6 3 4 5 6 7 9 rings

> <PUBCHEM_HEAVY_ATOM_COUNT>
17

> <PUBCHEM_ATOM_DEF_STEREO_COUNT>
0

> <PUBCHEM_ATOM_UDEF_STEREO_COUNT>
1

> <PUBCHEM_BOND_DEF_STEREO_COUNT>
0

> <PUBCHEM_BOND_UDEF_STEREO_COUNT>
0

> <PUBCHEM_ISOTOPIC_ATOM_COUNT>
0

> <PUBCHEM_COMPONENT_COUNT>
1

> <PUBCHEM_CACTVS_TAUTO_COUNT>
1

> <PUBCHEM_CONFORMER_ID>
0000179800000001

> <PUBCHEM_MMFF94_ENERGY>
37.693

> <PUBCHEM_FEATURE_SELFOVERLAP>
30.488

> <PUBCHEM_SHAPE_FINGERPRINT>
10498660 4 17531795862651596117
11287383 113 18186805802583086296
11401426 45 17917706920518111850
11471102 20 18272370880115381818
12236239 1 16558752312685516203
12916748 109 17530687606169380065
13081056 2 18335420175170812685
13134695 92 17561078124878531192
13675066 3 18337392737543193810
13760787 5 17775568641079044816
14573314 32 18333450923933068583
15219456 202 18408884044564724855
15242439 84 18407760322206398767
15788980 27 18342736321051888119
17834072 33 17917426566448893735
17834072 8 18341617001419844110
18186145 218 18410575080384104946
19433438 28 18114183046942023089
200 152 17489587844248246721
20645477 56 18260545658043657197
20645477 70 18201443545329136206
21033648 29 18337098025910313281
21267235 1 18200888300826410630
21503847 285 16588029021757193260
221357 26 18343293748263312453
22289505 5 18341327808281790692
231179 274 18334009493104256738
23402539 116 17386001801739686543
23402655 69 18273495671509244508
23536379 177 17240482481876042914
23557571 272 18040439871345210149
23559900 14 18410293593255968698
29717793 49 16988570073995536204
3268164 11 17313374652420997855
34934 24 18130218359292813558
3545911 37 18409169921772176575
4047638 21 18260547827344967962
4072396 5 18341880880411688130
4214541 1 18408324393373020683
474 4 14563677559285475838
4990 188 18334577927826055426
5104073 3 18334857212211041065
522135 26 18344146986365628214
5281201 14 18334298660415088548
542803 24 16773800298625141035
633830 44 18114175367208337831
77779 3 18335140903480604799

> <PUBCHEM_SHAPE_MULTIPOLES>
333.13
11.39
1.45
0.92
3.44
0.05
0.02
0.98
1.35
-0.42
0
0.5
0.12
1.09

> <PUBCHEM_SHAPE_SELFOVERLAP>
705.364

> <PUBCHEM_SHAPE_VOLUME>
186

> <PUBCHEM_COORDINATE_TYPE>
2
5
10

$$$$
