14235244
  -OEChem-02172602273D

 15 14  0     1  0  0  0  0  0999 V2000
   -3.8529   -0.5544   -0.2319 S   0  0  0  0  0  0  0  0  0  0  0  0
    1.1279    1.6534   -0.1956 O   0  0  0  0  0  0  0  0  0  0  0  0
   -1.3252    0.3528    0.4305 N   0  0  0  0  0  0  0  0  0  0  0  0
    1.1025    0.2889    0.2210 C   0  0  1  0  0  0  0  0  0  0  0  0
   -0.2131   -0.3490   -0.2204 C   0  0  0  0  0  0  0  0  0  0  0  0
    2.2732   -0.3995   -0.4163 C   0  0  0  0  0  0  0  0  0  0  0  0
    3.2794   -0.9506    0.2716 C   0  0  0  0  0  0  0  0  0  0  0  0
   -2.3918   -0.0416    0.1411 C   0  0  0  0  0  0  0  0  0  0  0  0
    1.1829    0.2775    1.3145 H   0  0  0  0  0  0  0  0  0  0  0  0
   -0.2203   -1.4140    0.0493 H   0  0  0  0  0  0  0  0  0  0  0  0
   -0.3158   -0.2684   -1.3122 H   0  0  0  0  0  0  0  0  0  0  0  0
    2.3063   -0.4385   -1.5025 H   0  0  0  0  0  0  0  0  0  0  0  0
    0.3475    2.0891    0.1878 H   0  0  0  0  0  0  0  0  0  0  0  0
    4.1024   -1.4293   -0.2478 H   0  0  0  0  0  0  0  0  0  0  0  0
    3.3011   -0.9352    1.3556 H   0  0  0  0  0  0  0  0  0  0  0  0
  1  8  2  0  0  0  0
  2  4  1  0  0  0  0
  2 13  1  0  0  0  0
  3  5  1  0  0  0  0
  3  8  2  0  0  0  0
  4  5  1  0  0  0  0
  4  6  1  0  0  0  0
  4  9  1  0  0  0  0
  5 10  1  0  0  0  0
  5 11  1  0  0  0  0
  6  7  2  0  0  0  0
  6 12  1  0  0  0  0
  7 14  1  0  0  0  0
  7 15  1  0  0  0  0
M  END
> <PUBCHEM_COMPOUND_CID>
14235244

> <PUBCHEM_CONFORMER_RMSD>
0.6

> <PUBCHEM_CONFORMER_DIVERSEORDER>
1
15
14
20
24
7
16
13
22
12
19
3
21
11
17
2
18
6
23
5
4
8
10
9

> <PUBCHEM_MMFF94_PARTIAL_CHARGES>
12
1 -0.27
12 0.15
13 0.4
14 0.15
15 0.15
2 -0.68
3 -0.55
4 0.42
5 0.25
6 -0.29
7 -0.3
8 0.57

> <PUBCHEM_EFFECTIVE_ROTOR_COUNT>
3

> <PUBCHEM_PHARMACOPHORE_FEATURES>
5
1 1 acceptor
1 2 acceptor
1 2 donor
1 3 acceptor
1 7 hydrophobe

> <PUBCHEM_HEAVY_ATOM_COUNT>
8

> <PUBCHEM_ATOM_DEF_STEREO_COUNT>
0

> <PUBCHEM_ATOM_UDEF_STEREO_COUNT>
1

> <PUBCHEM_BOND_DEF_STEREO_COUNT>
0

> <PUBCHEM_BOND_UDEF_STEREO_COUNT>
0

> <PUBCHEM_ISOTOPIC_ATOM_COUNT>
0

> <PUBCHEM_COMPONENT_COUNT>
1

> <PUBCHEM_CACTVS_TAUTO_COUNT>
1

> <PUBCHEM_CONFORMER_ID>
00D9366C00000001

> <PUBCHEM_MMFF94_ENERGY>
6.4163

> <PUBCHEM_FEATURE_SELFOVERLAP>
25.379

> <PUBCHEM_SHAPE_FINGERPRINT>
11062470 55 12823294598213104003
12932741 1 17313673762237792641
12932764 1 17095511929493341651
14325111 11 18412545448576778307
177051 138 17917993888568401935
20651381 32 17894632547616664246
29004967 10 18336834108738315906
3248919 1 17346611793616806527
5460574 1 11530485536112726714

> <PUBCHEM_SHAPE_MULTIPOLES>
157.64
6.18
1.08
0.68
2.98
0.31
0.01
-2.17
0.09
-0.51
0.04
0
-0.03
-0.17

> <PUBCHEM_SHAPE_SELFOVERLAP>
283.445

> <PUBCHEM_SHAPE_VOLUME>
101.9

> <PUBCHEM_COORDINATE_TYPE>
2
5
10

$$$$
