86230
  -OEChem-02172602563D

 26 26  0     1  0  0  0  0  0999 V2000
    1.2273   -0.0206   -1.6777 O   0  0  0  0  0  0  0  0  0  0  0  0
    2.2445   -1.8168   -0.0757 O   0  0  0  0  0  0  0  0  0  0  0  0
    1.2648   -0.9854    1.8190 N   0  0  0  0  0  0  0  0  0  0  0  0
    0.9026    0.2052   -0.2976 C   0  0  1  0  0  0  0  0  0  0  0  0
    1.5823    1.5396    0.1021 C   0  0  0  0  0  0  0  0  0  0  0  0
   -0.6171    0.1375   -0.1557 C   0  0  0  0  0  0  0  0  0  0  0  0
    1.5410   -0.9667    0.4690 C   0  0  0  0  0  0  0  0  0  0  0  0
    3.0854    1.5816   -0.1637 C   0  0  0  0  0  0  0  0  0  0  0  0
   -1.2751   -0.9813   -0.6162 C   0  0  0  0  0  0  0  0  0  0  0  0
   -1.2748    1.1979    0.4272 C   0  0  0  0  0  0  0  0  0  0  0  0
   -2.6626   -1.0428   -0.4870 C   0  0  0  0  0  0  0  0  0  0  0  0
   -2.6622    1.1362    0.5566 C   0  0  0  0  0  0  0  0  0  0  0  0
   -3.3562    0.0159    0.0996 C   0  0  0  0  0  0  0  0  0  0  0  0
    1.4236    1.7519    1.1664 H   0  0  0  0  0  0  0  0  0  0  0  0
    1.1380    2.3649   -0.4694 H   0  0  0  0  0  0  0  0  0  0  0  0
    3.3118    1.5219   -1.2323 H   0  0  0  0  0  0  0  0  0  0  0  0
    3.6138    0.7758    0.3536 H   0  0  0  0  0  0  0  0  0  0  0  0
    3.4956    2.5301    0.1995 H   0  0  0  0  0  0  0  0  0  0  0  0
   -0.7479   -1.8117   -1.0757 H   0  0  0  0  0  0  0  0  0  0  0  0
   -0.7767    2.0845    0.8004 H   0  0  0  0  0  0  0  0  0  0  0  0
    2.1795   -0.1976   -1.7539 H   0  0  0  0  0  0  0  0  0  0  0  0
   -3.2031   -1.9150   -0.8430 H   0  0  0  0  0  0  0  0  0  0  0  0
   -3.2027    1.9596    1.0144 H   0  0  0  0  0  0  0  0  0  0  0  0
   -4.4365   -0.0323    0.2006 H   0  0  0  0  0  0  0  0  0  0  0  0
    0.6912   -0.2800    2.2696 H   0  0  0  0  0  0  0  0  0  0  0  0
    1.6380   -1.7160    2.4159 H   0  0  0  0  0  0  0  0  0  0  0  0
  1  4  1  0  0  0  0
  1 21  1  0  0  0  0
  2  7  2  0  0  0  0
  3  7  1  0  0  0  0
  3 25  1  0  0  0  0
  3 26  1  0  0  0  0
  4  5  1  0  0  0  0
  4  6  1  0  0  0  0
  4  7  1  0  0  0  0
  5  8  1  0  0  0  0
  5 14  1  0  0  0  0
  5 15  1  0  0  0  0
  6  9  2  0  0  0  0
  6 10  1  0  0  0  0
  8 16  1  0  0  0  0
  8 17  1  0  0  0  0
  8 18  1  0  0  0  0
  9 11  1  0  0  0  0
  9 19  1  0  0  0  0
 10 12  2  0  0  0  0
 10 20  1  0  0  0  0
 11 13  2  0  0  0  0
 11 22  1  0  0  0  0
 12 13  1  0  0  0  0
 12 23  1  0  0  0  0
 13 24  1  0  0  0  0
M  END
> <PUBCHEM_COMPOUND_CID>
86230

> <PUBCHEM_CONFORMER_RMSD>
0.6

> <PUBCHEM_CONFORMER_DIVERSEORDER>
2
8
23
1
6
13
9
25
24
22
18
21
10
16
17
15
19
26
20
14
11
4
3
12
5
7

> <PUBCHEM_MMFF94_PARTIAL_CHARGES>
19
1 -0.68
10 -0.15
11 -0.15
12 -0.15
13 -0.15
19 0.15
2 -0.57
20 0.15
21 0.4
22 0.15
23 0.15
24 0.15
25 0.37
26 0.37
3 -0.8
4 0.48
6 -0.14
7 0.57
9 -0.15

> <PUBCHEM_EFFECTIVE_ROTOR_COUNT>
3

> <PUBCHEM_PHARMACOPHORE_FEATURES>
6
1 1 acceptor
1 1 donor
1 2 acceptor
1 3 donor
1 8 hydrophobe
6 6 9 10 11 12 13 rings

> <PUBCHEM_HEAVY_ATOM_COUNT>
13

> <PUBCHEM_ATOM_DEF_STEREO_COUNT>
0

> <PUBCHEM_ATOM_UDEF_STEREO_COUNT>
1

> <PUBCHEM_BOND_DEF_STEREO_COUNT>
0

> <PUBCHEM_BOND_UDEF_STEREO_COUNT>
0

> <PUBCHEM_ISOTOPIC_ATOM_COUNT>
0

> <PUBCHEM_COMPONENT_COUNT>
1

> <PUBCHEM_CACTVS_TAUTO_COUNT>
2

> <PUBCHEM_CONFORMER_ID>
000150D600000002

> <PUBCHEM_MMFF94_ENERGY>
33.5655

> <PUBCHEM_FEATURE_SELFOVERLAP>
30.457

> <PUBCHEM_SHAPE_FINGERPRINT>
12202030 40 16009041540098490041
12326174 3 17603855689903283794
12423570 1 10545733226809288191
12932764 1 18114467764682475661
15775835 57 18410300215610177449
16945 1 18197775711624062925
170605 34 18337956791440613408
20559304 39 18341612585982499515
20645477 70 18335695032083221551
20653091 64 18335134267803540512
21501502 16 18272933812720193893
21524375 3 18118119410402654228
22445834 79 18262797350636381395
23236772 104 18338517572493462249
23552423 10 18410570674022011167
2748010 2 16973653845855318205
3248919 1 17418096473340373581
369184 2 18407757032620068157
5084963 1 17774724139108513923
528862 383 18260821609613265000
528886 8 17560527312217572148
7364860 26 18343303643603718118
74978 22 18339359661087803845
8030462 33 18334584546486514933

> <PUBCHEM_SHAPE_MULTIPOLES>
250.81
4.71
1.71
1.09
1.27
0
0.13
-0.76
-0.02
-0.75
0.15
-0.39
0.25
-0.61

> <PUBCHEM_SHAPE_SELFOVERLAP>
519.734

> <PUBCHEM_SHAPE_VOLUME>
143.3

> <PUBCHEM_COORDINATE_TYPE>
2
5
10

$$$$
