125114671
  -OEChem-02172602333D

 84 88  0     1  0  0  0  0  0999 V2000
    5.0877   -1.2463   -2.2801 O   0  0  0  0  0  0  0  0  0  0  0  0
   -5.1245    0.5100   -1.6427 O   0  0  0  0  0  0  0  0  0  0  0  0
   -0.7026    0.5639   -0.1500 C   0  0  1  0  0  0  0  0  0  0  0  0
    0.7941    0.6801    0.5139 C   0  0  1  0  0  0  0  0  0  0  0  0
   -1.3908   -0.7455    0.4295 C   0  0  1  0  0  0  0  0  0  0  0  0
    1.6016   -0.6315    0.1535 C   0  0  1  0  0  0  0  0  0  0  0  0
   -2.9155   -0.8871    0.1174 C   0  0  2  0  0  0  0  0  0  0  0  0
    3.1703   -0.6305    0.4364 C   0  0  2  0  0  0  0  0  0  0  0  0
   -3.5923    0.4107    0.6163 C   0  0  1  0  0  0  0  0  0  0  0  0
    3.7855    0.6856   -0.1524 C   0  0  1  0  0  0  0  0  0  0  0  0
   -1.5891    1.8233    0.1627 C   0  0  0  0  0  0  0  0  0  0  0  0
   -0.5650   -2.0104    0.1437 C   0  0  0  0  0  0  0  0  0  0  0  0
    0.8714   -1.8982    0.6628 C   0  0  0  0  0  0  0  0  0  0  0  0
    1.5674    1.9154   -0.0270 C   0  0  0  0  0  0  0  0  0  0  0  0
   -3.0997    1.6539   -0.1057 C   0  0  0  0  0  0  0  0  0  0  0  0
   -5.0898    0.1012    0.7226 C   0  0  2  0  0  0  0  0  0  0  0  0
   -3.6582   -1.8971    1.0230 C   0  0  0  0  0  0  0  0  0  0  0  0
    3.0519    1.9455    0.3455 C   0  0  0  0  0  0  0  0  0  0  0  0
    5.3544    0.7937   -0.0627 C   0  0  0  0  0  0  0  0  0  0  0  0
   -0.6049    0.5035   -1.7071 C   0  0  0  0  0  0  0  0  0  0  0  0
    3.7999   -1.8591   -0.3205 C   0  0  0  0  0  0  0  0  0  0  0  0
    0.6864    0.8729    2.0585 C   0  0  0  0  0  0  0  0  0  0  0  0
   -5.1250   -1.4170    1.0141 C   0  0  0  0  0  0  0  0  0  0  0  0
   -3.2263   -1.2684   -1.3496 C   0  0  0  0  0  0  0  0  0  0  0  0
    3.4944   -0.8152    1.9381 C   0  0  0  0  0  0  0  0  0  0  0  0
    5.1986   -1.6410   -0.9135 C   0  0  2  0  0  0  0  0  0  0  0  0
    6.0254   -0.6048   -0.1625 C   0  0  0  0  0  0  0  0  0  0  0  0
   -5.9447    0.5051   -0.4717 C   0  0  0  0  0  0  0  0  0  0  0  0
    5.8613    1.4784    1.2266 C   0  0  0  0  0  0  0  0  0  0  0  0
    5.8600    1.6737   -1.2381 C   0  0  0  0  0  0  0  0  0  0  0  0
   -7.0895   -0.4860   -0.6886 C   0  0  0  0  0  0  0  0  0  0  0  0
   -6.4923    1.9212   -0.2924 C   0  0  0  0  0  0  0  0  0  0  0  0
   -1.3658   -0.6398    1.5213 H   0  0  0  0  0  0  0  0  0  0  0  0
    1.5542   -0.6957   -0.9424 H   0  0  0  0  0  0  0  0  0  0  0  0
   -3.2825    0.5551    1.6667 H   0  0  0  0  0  0  0  0  0  0  0  0
    3.5575    0.6402   -1.2297 H   0  0  0  0  0  0  0  0  0  0  0  0
   -1.2252    2.6907   -0.4021 H   0  0  0  0  0  0  0  0  0  0  0  0
   -1.5033    2.0972    1.2168 H   0  0  0  0  0  0  0  0  0  0  0  0
   -0.5350   -2.2375   -0.9259 H   0  0  0  0  0  0  0  0  0  0  0  0
   -1.0349   -2.8769    0.6241 H   0  0  0  0  0  0  0  0  0  0  0  0
    0.8463   -1.9221    1.7566 H   0  0  0  0  0  0  0  0  0  0  0  0
    1.4070   -2.8023    0.3540 H   0  0  0  0  0  0  0  0  0  0  0  0
    1.0977    2.8401    0.3304 H   0  0  0  0  0  0  0  0  0  0  0  0
    1.5358    1.9637   -1.1168 H   0  0  0  0  0  0  0  0  0  0  0  0
   -3.6038    2.5413    0.2909 H   0  0  0  0  0  0  0  0  0  0  0  0
   -3.2607    1.6520   -1.1830 H   0  0  0  0  0  0  0  0  0  0  0  0
   -5.4911    0.6006    1.6160 H   0  0  0  0  0  0  0  0  0  0  0  0
   -3.2732   -1.8636    2.0501 H   0  0  0  0  0  0  0  0  0  0  0  0
   -3.5685   -2.9318    0.6750 H   0  0  0  0  0  0  0  0  0  0  0  0
    3.4863    2.8385   -0.1186 H   0  0  0  0  0  0  0  0  0  0  0  0
    3.1743    2.0803    1.4236 H   0  0  0  0  0  0  0  0  0  0  0  0
    0.0438    1.2771   -2.1195 H   0  0  0  0  0  0  0  0  0  0  0  0
   -1.5563    0.7013   -2.1967 H   0  0  0  0  0  0  0  0  0  0  0  0
   -0.2403   -0.4538   -2.0837 H   0  0  0  0  0  0  0  0  0  0  0  0
    3.1380   -2.1787   -1.1353 H   0  0  0  0  0  0  0  0  0  0  0  0
    3.8485   -2.7118    0.3702 H   0  0  0  0  0  0  0  0  0  0  0  0
    0.2379    0.0244    2.5771 H   0  0  0  0  0  0  0  0  0  0  0  0
    0.1083    1.7616    2.3223 H   0  0  0  0  0  0  0  0  0  0  0  0
    1.6510    1.0386    2.5323 H   0  0  0  0  0  0  0  0  0  0  0  0
   -5.6573   -2.0471    0.3042 H   0  0  0  0  0  0  0  0  0  0  0  0
   -5.5801   -1.6098    1.9930 H   0  0  0  0  0  0  0  0  0  0  0  0
   -3.0804   -0.4711   -2.0712 H   0  0  0  0  0  0  0  0  0  0  0  0
   -4.2381   -1.6620   -1.4854 H   0  0  0  0  0  0  0  0  0  0  0  0
   -2.5825   -2.0951   -1.6686 H   0  0  0  0  0  0  0  0  0  0  0  0
    3.3979    0.1033    2.5149 H   0  0  0  0  0  0  0  0  0  0  0  0
    4.5196   -1.1606    2.0966 H   0  0  0  0  0  0  0  0  0  0  0  0
    2.8618   -1.5729    2.4074 H   0  0  0  0  0  0  0  0  0  0  0  0
    5.7386   -2.5951   -0.9136 H   0  0  0  0  0  0  0  0  0  0  0  0
    7.0038   -0.5062   -0.6514 H   0  0  0  0  0  0  0  0  0  0  0  0
    6.2406   -0.9976    0.8380 H   0  0  0  0  0  0  0  0  0  0  0  0
    5.5302    0.9613    2.1298 H   0  0  0  0  0  0  0  0  0  0  0  0
    6.9578    1.4947    1.2506 H   0  0  0  0  0  0  0  0  0  0  0  0
    5.5278    2.5192    1.2957 H   0  0  0  0  0  0  0  0  0  0  0  0
    6.9538    1.7481   -1.2348 H   0  0  0  0  0  0  0  0  0  0  0  0
    5.5625    1.2677   -2.2097 H   0  0  0  0  0  0  0  0  0  0  0  0
    5.4689    2.6946   -1.1759 H   0  0  0  0  0  0  0  0  0  0  0  0
   -7.8289   -0.0498   -1.3735 H   0  0  0  0  0  0  0  0  0  0  0  0
   -6.7726   -1.4005   -1.2005 H   0  0  0  0  0  0  0  0  0  0  0  0
   -7.6254   -0.7215    0.2369 H   0  0  0  0  0  0  0  0  0  0  0  0
   -7.0803    2.2234   -1.1674 H   0  0  0  0  0  0  0  0  0  0  0  0
   -5.6991    2.6662   -0.1994 H   0  0  0  0  0  0  0  0  0  0  0  0
   -7.1388    1.9935    0.5888 H   0  0  0  0  0  0  0  0  0  0  0  0
    4.6330   -1.9607   -2.7579 H   0  0  0  0  0  0  0  0  0  0  0  0
   -5.6851    0.7445   -2.4019 H   0  0  0  0  0  0  0  0  0  0  0  0
  1 26  1  0  0  0  0
  1 83  1  0  0  0  0
  2 28  1  0  0  0  0
  2 84  1  0  0  0  0
  3  4  1  0  0  0  0
  3  5  1  0  0  0  0
  3 11  1  0  0  0  0
  3 20  1  0  0  0  0
  4  6  1  0  0  0  0
  4 14  1  0  0  0  0
  4 22  1  0  0  0  0
  5  7  1  0  0  0  0
  5 12  1  0  0  0  0
  5 33  1  0  0  0  0
  6  8  1  0  0  0  0
  6 13  1  0  0  0  0
  6 34  1  0  0  0  0
  7  9  1  0  0  0  0
  7 17  1  0  0  0  0
  7 24  1  0  0  0  0
  8 10  1  0  0  0  0
  8 21  1  0  0  0  0
  8 25  1  0  0  0  0
  9 15  1  0  0  0  0
  9 16  1  0  0  0  0
  9 35  1  0  0  0  0
 10 18  1  0  0  0  0
 10 19  1  0  0  0  0
 10 36  1  0  0  0  0
 11 15  1  0  0  0  0
 11 37  1  0  0  0  0
 11 38  1  0  0  0  0
 12 13  1  0  0  0  0
 12 39  1  0  0  0  0
 12 40  1  0  0  0  0
 13 41  1  0  0  0  0
 13 42  1  0  0  0  0
 14 18  1  0  0  0  0
 14 43  1  0  0  0  0
 14 44  1  0  0  0  0
 15 45  1  0  0  0  0
 15 46  1  0  0  0  0
 16 23  1  0  0  0  0
 16 28  1  0  0  0  0
 16 47  1  0  0  0  0
 17 23  1  0  0  0  0
 17 48  1  0  0  0  0
 17 49  1  0  0  0  0
 18 50  1  0  0  0  0
 18 51  1  0  0  0  0
 19 27  1  0  0  0  0
 19 29  1  0  0  0  0
 19 30  1  0  0  0  0
 20 52  1  0  0  0  0
 20 53  1  0  0  0  0
 20 54  1  0  0  0  0
 21 26  1  0  0  0  0
 21 55  1  0  0  0  0
 21 56  1  0  0  0  0
 22 57  1  0  0  0  0
 22 58  1  0  0  0  0
 22 59  1  0  0  0  0
 23 60  1  0  0  0  0
 23 61  1  0  0  0  0
 24 62  1  0  0  0  0
 24 63  1  0  0  0  0
 24 64  1  0  0  0  0
 25 65  1  0  0  0  0
 25 66  1  0  0  0  0
 25 67  1  0  0  0  0
 26 27  1  0  0  0  0
 26 68  1  0  0  0  0
 27 69  1  0  0  0  0
 27 70  1  0  0  0  0
 28 31  1  0  0  0  0
 28 32  1  0  0  0  0
 29 71  1  0  0  0  0
 29 72  1  0  0  0  0
 29 73  1  0  0  0  0
 30 74  1  0  0  0  0
 30 75  1  0  0  0  0
 30 76  1  0  0  0  0
 31 77  1  0  0  0  0
 31 78  1  0  0  0  0
 31 79  1  0  0  0  0
 32 80  1  0  0  0  0
 32 81  1  0  0  0  0
 32 82  1  0  0  0  0
M  END
> <PUBCHEM_COMPOUND_CID>
125114671

> <PUBCHEM_CONFORMER_RMSD>
0.8

> <PUBCHEM_CONFORMER_DIVERSEORDER>
1

> <PUBCHEM_MMFF94_PARTIAL_CHARGES>
6
1 -0.68
2 -0.68
26 0.28
28 0.28
83 0.4
84 0.4

> <PUBCHEM_EFFECTIVE_ROTOR_COUNT>
3.6

> <PUBCHEM_PHARMACOPHORE_FEATURES>
11
1 1 acceptor
1 1 donor
1 2 acceptor
1 2 donor
3 19 29 30 hydrophobe
3 28 31 32 hydrophobe
5 7 9 16 17 23 rings
6 3 4 5 6 12 13 rings
6 3 5 7 9 11 15 rings
6 4 6 8 10 14 18 rings
6 8 10 19 21 26 27 rings

> <PUBCHEM_HEAVY_ATOM_COUNT>
32

> <PUBCHEM_ATOM_DEF_STEREO_COUNT>
10

> <PUBCHEM_ATOM_UDEF_STEREO_COUNT>
0

> <PUBCHEM_BOND_DEF_STEREO_COUNT>
0

> <PUBCHEM_BOND_UDEF_STEREO_COUNT>
0

> <PUBCHEM_ISOTOPIC_ATOM_COUNT>
0

> <PUBCHEM_COMPONENT_COUNT>
1

> <PUBCHEM_CACTVS_TAUTO_COUNT>
1

> <PUBCHEM_CONFORMER_ID>
0775192F00000001

> <PUBCHEM_MMFF94_ENERGY>
189.6652

> <PUBCHEM_FEATURE_SELFOVERLAP>
55.916

> <PUBCHEM_SHAPE_FINGERPRINT>
10 15 17458347467845112921
10673678 19 18044389450969058460
10906281 52 18339369561435801105
11135609 187 18119257405301899652
11488393 25 17487070971870240671
11578080 2 16662037025048326111
11796584 16 18409167726959823931
12011746 2 18410854335437619403
12166972 35 12679459815514251915
12236239 1 17603585248439184504
12516196 113 18202562886483073817
12788726 201 18342456997859464432
13224815 77 18040713666735824490
13402501 40 18408605863653882955
13533116 47 17060342890443329950
13782708 43 13902184881210111189
13811026 1 18410853278411876354
13914758 101 15195289682168657089
14341114 176 18410863156804592905
14790565 3 18408047307557792792
14840074 17 17749114374377595679
14856354 85 15357705206112250387
15131766 46 15938398086108243004
15183329 4 18408043996069182568
15196674 1 18408888442442535034
15361156 5 18337116760066619500
15788980 27 17561365084353930891
17349148 13 12535349025584919010
17844677 252 18272940384231419848
1813 80 17313105280303372812
18222031 100 14980239552539185194
19377110 9 13695863718906936311
20511986 3 17489295434791260982
20567600 75 18202567258997008549
21033648 29 18335133245416779457
21150785 3 16271923856619104792
21267235 1 18410864256390151675
21279426 13 18410858728946466285
21682296 61 17845385353189762966
21792934 111 18338503154641599928
221357 26 18343019973709022984
2215653 11 18343021086031498319
22393880 68 18263082133027845624
23522609 53 17773342134413007129
23559900 14 18409445920971910497
23569914 152 17190931662982759623
23569943 247 17629775465090103767
24771750 20 17831872608767133300
3004659 81 18408888408926795818
335352 9 18409448093855707350
34797466 226 18411985766729739004
350125 39 18335420175034013313
3633792 109 18410851028682229109
4073 2 17822579403186155986
4093350 32 17704354355664906374
4325135 7 18334015004169867820
5104073 3 18411982421398407624
58260988 393 15140954015872100333
59755656 215 18334858294463703487
6328613 192 18260269650877169717

> <PUBCHEM_SHAPE_MULTIPOLES>
646.81
16.7
2.24
1.48
5.18
0.01
-0.11
-1.81
-3.34
-0.51
0.03
-0.79
0.15
0.95

> <PUBCHEM_SHAPE_SELFOVERLAP>
1365.731

> <PUBCHEM_SHAPE_VOLUME>
363.3

> <PUBCHEM_COORDINATE_TYPE>
2
5
10

$$$$
