542750
  -OEChem-02172602503D

 29 28  0     0  0  0  0  0  0999 V2000
    0.3256    1.1169    0.6069 O   0  0  0  0  0  0  0  0  0  0  0  0
    1.4403   -0.8597   -0.0149 O   0  0  0  0  0  0  0  0  0  0  0  0
   -0.6723   -1.5067   -1.1877 O   0  0  0  0  0  0  0  0  0  0  0  0
   -2.1609   -0.4135    0.2132 N   0  0  0  0  0  0  0  0  0  0  0  0
    0.2965   -0.3073    0.6404 C   0  0  0  0  0  0  0  0  0  0  0  0
   -0.8817   -0.8055   -0.1925 C   0  0  0  0  0  0  0  0  0  0  0  0
    0.4708    1.6298   -0.7114 C   0  0  0  0  0  0  0  0  0  0  0  0
    2.6542   -0.4972    0.6300 C   0  0  0  0  0  0  0  0  0  0  0  0
   -2.4640    0.4130    1.3789 C   0  0  0  0  0  0  0  0  0  0  0  0
   -3.3151   -0.7949   -0.5916 C   0  0  0  0  0  0  0  0  0  0  0  0
    0.4919    3.1423   -0.6524 C   0  0  0  0  0  0  0  0  0  0  0  0
    3.8147   -1.1172   -0.1188 C   0  0  0  0  0  0  0  0  0  0  0  0
    0.2282   -0.6777    1.6681 H   0  0  0  0  0  0  0  0  0  0  0  0
    1.4013    1.2851   -1.1735 H   0  0  0  0  0  0  0  0  0  0  0  0
   -0.3685    1.3298   -1.3470 H   0  0  0  0  0  0  0  0  0  0  0  0
    2.7797    0.5902    0.6511 H   0  0  0  0  0  0  0  0  0  0  0  0
    2.6436   -0.8679    1.6611 H   0  0  0  0  0  0  0  0  0  0  0  0
   -3.3279   -0.0091    1.9013 H   0  0  0  0  0  0  0  0  0  0  0  0
   -2.7057    1.4217    1.0317 H   0  0  0  0  0  0  0  0  0  0  0  0
   -1.6334    0.4638    2.0830 H   0  0  0  0  0  0  0  0  0  0  0  0
   -3.9976   -1.3844    0.0277 H   0  0  0  0  0  0  0  0  0  0  0  0
   -3.0290   -1.3874   -1.4640 H   0  0  0  0  0  0  0  0  0  0  0  0
   -3.8210    0.1136   -0.9318 H   0  0  0  0  0  0  0  0  0  0  0  0
    0.5987    3.5723   -1.6523 H   0  0  0  0  0  0  0  0  0  0  0  0
   -0.4301    3.5233   -0.2009 H   0  0  0  0  0  0  0  0  0  0  0  0
    1.3206    3.4917   -0.0276 H   0  0  0  0  0  0  0  0  0  0  0  0
    4.7666   -0.8664    0.3576 H   0  0  0  0  0  0  0  0  0  0  0  0
    3.7133   -2.2070   -0.1537 H   0  0  0  0  0  0  0  0  0  0  0  0
    3.8351   -0.7660   -1.1558 H   0  0  0  0  0  0  0  0  0  0  0  0
  1  5  1  0  0  0  0
  1  7  1  0  0  0  0
  2  5  1  0  0  0  0
  2  8  1  0  0  0  0
  3  6  2  0  0  0  0
  4  6  1  0  0  0  0
  4  9  1  0  0  0  0
  4 10  1  0  0  0  0
  5  6  1  0  0  0  0
  5 13  1  0  0  0  0
  7 11  1  0  0  0  0
  7 14  1  0  0  0  0
  7 15  1  0  0  0  0
  8 12  1  0  0  0  0
  8 16  1  0  0  0  0
  8 17  1  0  0  0  0
  9 18  1  0  0  0  0
  9 19  1  0  0  0  0
  9 20  1  0  0  0  0
 10 21  1  0  0  0  0
 10 22  1  0  0  0  0
 10 23  1  0  0  0  0
 11 24  1  0  0  0  0
 11 25  1  0  0  0  0
 11 26  1  0  0  0  0
 12 27  1  0  0  0  0
 12 28  1  0  0  0  0
 12 29  1  0  0  0  0
M  END
> <PUBCHEM_COMPOUND_CID>
542750

> <PUBCHEM_CONFORMER_RMSD>
0.6

> <PUBCHEM_CONFORMER_DIVERSEORDER>
1
11
30
38
25
8
31
24
18
36
23
10
34
43
29
15
33
42
37
22
13
12
26
7
16
39
4
40
41
35
27
14
17
44
9
21
28
6
19
20
32
2
3
5

> <PUBCHEM_MMFF94_PARTIAL_CHARGES>
10
1 -0.56
10 0.3
2 -0.56
3 -0.57
4 -0.66
5 0.62
6 0.57
7 0.28
8 0.28
9 0.3

> <PUBCHEM_EFFECTIVE_ROTOR_COUNT>
6

> <PUBCHEM_PHARMACOPHORE_FEATURES>
3
1 1 acceptor
1 2 acceptor
1 3 acceptor

> <PUBCHEM_HEAVY_ATOM_COUNT>
12

> <PUBCHEM_ATOM_DEF_STEREO_COUNT>
0

> <PUBCHEM_ATOM_UDEF_STEREO_COUNT>
0

> <PUBCHEM_BOND_DEF_STEREO_COUNT>
0

> <PUBCHEM_BOND_UDEF_STEREO_COUNT>
0

> <PUBCHEM_ISOTOPIC_ATOM_COUNT>
0

> <PUBCHEM_COMPONENT_COUNT>
1

> <PUBCHEM_CACTVS_TAUTO_COUNT>
1

> <PUBCHEM_CONFORMER_ID>
0008481E00000001

> <PUBCHEM_MMFF94_ENERGY>
23.3045

> <PUBCHEM_FEATURE_SELFOVERLAP>
15.282

> <PUBCHEM_SHAPE_FINGERPRINT>
14993402 34 18412824698359789071
15219459 52 18268709579082531167
16945 1 18335428971195230683
20711985 327 18411705387117128404
20711985 344 18045209449812866688
207724 885 18411982476816425659
21130352 189 18334286587320021973
23419403 2 15109907213407782043
23552423 10 17979631569607272359
305870 269 17759520362681618668
3250762 1 17536887937011959818
5084963 1 18341044216112802995
7364860 26 18124030393065467800
81228 2 18044656395485441112

> <PUBCHEM_SHAPE_MULTIPOLES>
224.37
4.75
2.31
1.07
1.39
2.81
0.11
-2.8
0.25
0.7
-0.79
-0.5
-0.01
-0.45

> <PUBCHEM_SHAPE_SELFOVERLAP>
416.339

> <PUBCHEM_SHAPE_VOLUME>
142

> <PUBCHEM_COORDINATE_TYPE>
2
5
10

$$$$
