522718
  -OEChem-02172602533D

 55 54  0     1  0  0  0  0  0999 V2000
    0.1375   -2.3180   -0.5905 P   0  0  0  0  0  0  0  0  0  0  0  0
   -0.7815   -1.2579    0.2277 O   0  0  0  0  0  0  0  0  0  0  0  0
    1.5699   -1.5474   -0.6038 O   0  0  0  0  0  0  0  0  0  0  0  0
   -0.3769   -2.5430   -1.9888 O   0  0  0  0  0  0  0  0  0  0  0  0
   -3.4950    0.9948   -0.5682 C   0  0  0  0  0  0  0  0  0  0  0  0
    2.7193    1.8285   -0.0227 C   0  0  0  0  0  0  0  0  0  0  0  0
   -2.6144    0.7755    0.6961 C   0  0  0  0  0  0  0  0  0  0  0  0
    3.3924    0.5455   -0.5909 C   0  0  0  0  0  0  0  0  0  0  0  0
   -2.7726   -0.5783    1.4278 C   0  0  1  0  0  0  0  0  0  0  0  0
    3.5764   -0.6362    0.3904 C   0  0  1  0  0  0  0  0  0  0  0  0
   -4.8346    0.2615   -0.3496 C   0  0  0  0  0  0  0  0  0  0  0  0
   -2.8181    0.3943   -1.8139 C   0  0  0  0  0  0  0  0  0  0  0  0
   -3.7929    2.4791   -0.8223 C   0  0  0  0  0  0  0  0  0  0  0  0
    3.1590    3.0972   -0.7667 C   0  0  0  0  0  0  0  0  0  0  0  0
    3.1301    1.9672    1.4577 C   0  0  0  0  0  0  0  0  0  0  0  0
    1.1852    1.7117   -0.0851 C   0  0  0  0  0  0  0  0  0  0  0  0
   -2.0524   -1.7105    0.6797 C   0  0  0  0  0  0  0  0  0  0  0  0
    2.2552   -1.3841    0.6259 C   0  0  0  0  0  0  0  0  0  0  0  0
   -2.2154   -0.4687    2.8551 C   0  0  0  0  0  0  0  0  0  0  0  0
    4.6291   -1.6113   -0.1580 C   0  0  0  0  0  0  0  0  0  0  0  0
   -1.5678    1.0040    0.4732 H   0  0  0  0  0  0  0  0  0  0  0  0
   -2.9133    1.5506    1.4175 H   0  0  0  0  0  0  0  0  0  0  0  0
    2.9004    0.2360   -1.5212 H   0  0  0  0  0  0  0  0  0  0  0  0
    4.4039    0.8426   -0.9056 H   0  0  0  0  0  0  0  0  0  0  0  0
   -3.8196   -0.8594    1.5689 H   0  0  0  0  0  0  0  0  0  0  0  0
    3.9798   -0.3208    1.3563 H   0  0  0  0  0  0  0  0  0  0  0  0
   -5.5362    0.5072   -1.1571 H   0  0  0  0  0  0  0  0  0  0  0  0
   -5.3144    0.5677    0.5870 H   0  0  0  0  0  0  0  0  0  0  0  0
   -4.7357   -0.8284   -0.3665 H   0  0  0  0  0  0  0  0  0  0  0  0
   -1.8100    0.8026   -1.9463 H   0  0  0  0  0  0  0  0  0  0  0  0
   -3.3889    0.6342   -2.7189 H   0  0  0  0  0  0  0  0  0  0  0  0
   -2.7402   -0.6928   -1.7776 H   0  0  0  0  0  0  0  0  0  0  0  0
   -4.4128    2.6196   -1.7149 H   0  0  0  0  0  0  0  0  0  0  0  0
   -2.8636    3.0410   -0.9683 H   0  0  0  0  0  0  0  0  0  0  0  0
   -4.3238    2.9272    0.0250 H   0  0  0  0  0  0  0  0  0  0  0  0
    4.2431    3.2406   -0.6987 H   0  0  0  0  0  0  0  0  0  0  0  0
    2.8970    3.0337   -1.8288 H   0  0  0  0  0  0  0  0  0  0  0  0
    2.6789    3.9928   -0.3567 H   0  0  0  0  0  0  0  0  0  0  0  0
    2.6787    1.2068    2.1027 H   0  0  0  0  0  0  0  0  0  0  0  0
    4.2192    1.9449    1.5783 H   0  0  0  0  0  0  0  0  0  0  0  0
    2.7896    2.9317    1.8555 H   0  0  0  0  0  0  0  0  0  0  0  0
    0.8483    1.4739   -1.1000 H   0  0  0  0  0  0  0  0  0  0  0  0
    0.7105    2.6567    0.2049 H   0  0  0  0  0  0  0  0  0  0  0  0
    0.7966    0.9511    0.5916 H   0  0  0  0  0  0  0  0  0  0  0  0
   -2.6403   -2.0510   -0.1761 H   0  0  0  0  0  0  0  0  0  0  0  0
   -1.9067   -2.5788    1.3325 H   0  0  0  0  0  0  0  0  0  0  0  0
    1.6218   -0.8397    1.3303 H   0  0  0  0  0  0  0  0  0  0  0  0
    2.4401   -2.3716    1.0638 H   0  0  0  0  0  0  0  0  0  0  0  0
   -1.1529   -0.2022    2.8472 H   0  0  0  0  0  0  0  0  0  0  0  0
   -2.3234   -1.4178    3.3912 H   0  0  0  0  0  0  0  0  0  0  0  0
   -2.7530    0.2965    3.4251 H   0  0  0  0  0  0  0  0  0  0  0  0
    4.3291   -2.0144   -1.1313 H   0  0  0  0  0  0  0  0  0  0  0  0
    4.7769   -2.4531    0.5269 H   0  0  0  0  0  0  0  0  0  0  0  0
    5.5957   -1.1114   -0.2811 H   0  0  0  0  0  0  0  0  0  0  0  0
    0.3342   -3.3752    0.3241 H   0  0  0  0  0  0  0  0  0  0  0  0
  1  2  1  0  0  0  0
  1  3  1  0  0  0  0
  1  4  2  0  0  0  0
  1 55  1  0  0  0  0
  2 17  1  0  0  0  0
  3 18  1  0  0  0  0
  5  7  1  0  0  0  0
  5 11  1  0  0  0  0
  5 12  1  0  0  0  0
  5 13  1  0  0  0  0
  6  8  1  0  0  0  0
  6 14  1  0  0  0  0
  6 15  1  0  0  0  0
  6 16  1  0  0  0  0
  7  9  1  0  0  0  0
  7 21  1  0  0  0  0
  7 22  1  0  0  0  0
  8 10  1  0  0  0  0
  8 23  1  0  0  0  0
  8 24  1  0  0  0  0
  9 17  1  0  0  0  0
  9 19  1  0  0  0  0
  9 25  1  0  0  0  0
 10 18  1  0  0  0  0
 10 20  1  0  0  0  0
 10 26  1  0  0  0  0
 11 27  1  0  0  0  0
 11 28  1  0  0  0  0
 11 29  1  0  0  0  0
 12 30  1  0  0  0  0
 12 31  1  0  0  0  0
 12 32  1  0  0  0  0
 13 33  1  0  0  0  0
 13 34  1  0  0  0  0
 13 35  1  0  0  0  0
 14 36  1  0  0  0  0
 14 37  1  0  0  0  0
 14 38  1  0  0  0  0
 15 39  1  0  0  0  0
 15 40  1  0  0  0  0
 15 41  1  0  0  0  0
 16 42  1  0  0  0  0
 16 43  1  0  0  0  0
 16 44  1  0  0  0  0
 17 45  1  0  0  0  0
 17 46  1  0  0  0  0
 18 47  1  0  0  0  0
 18 48  1  0  0  0  0
 19 49  1  0  0  0  0
 19 50  1  0  0  0  0
 19 51  1  0  0  0  0
 20 52  1  0  0  0  0
 20 53  1  0  0  0  0
 20 54  1  0  0  0  0
M  END
> <PUBCHEM_COMPOUND_CID>
522718

> <PUBCHEM_CONFORMER_RMSD>
1.2

> <PUBCHEM_CONFORMER_DIVERSEORDER>
1
26
4
44
42
3
36
20
19
17
24
29
37
28
12
33
39
18
43
21
10
34
41
40
32
38
31
14
23
8
7
22
45
11
35
16
13
30
5
9
27
25
15
6
2

> <PUBCHEM_MMFF94_PARTIAL_CHARGES>
7
1 1.28
17 0.28
18 0.28
2 -0.55
3 -0.55
4 -0.7
55 -0.04

> <PUBCHEM_EFFECTIVE_ROTOR_COUNT>
10

> <PUBCHEM_PHARMACOPHORE_FEATURES>
5
1 19 hydrophobe
1 20 hydrophobe
1 4 acceptor
4 5 11 12 13 hydrophobe
4 6 14 15 16 hydrophobe

> <PUBCHEM_HEAVY_ATOM_COUNT>
20

> <PUBCHEM_ATOM_DEF_STEREO_COUNT>
0

> <PUBCHEM_ATOM_UDEF_STEREO_COUNT>
0

> <PUBCHEM_BOND_DEF_STEREO_COUNT>
0

> <PUBCHEM_BOND_UDEF_STEREO_COUNT>
0

> <PUBCHEM_ISOTOPIC_ATOM_COUNT>
0

> <PUBCHEM_COMPONENT_COUNT>
1

> <PUBCHEM_CACTVS_TAUTO_COUNT>
2

> <PUBCHEM_CONFORMER_ID>
0007F9DE00000001

> <PUBCHEM_MMFF94_ENERGY>
52.6768

> <PUBCHEM_FEATURE_SELFOVERLAP>
25.374

> <PUBCHEM_SHAPE_FINGERPRINT>
10366900 7 17749109950271428775
10871710 139 17616539896380349237
11221954 11 18334296427243201269
11615756 56 18336829697516856429
11725454 13 17677600983109332671
12166972 35 18131064901088103834
12507557 5 18410575080637468666
12596599 1 17489592255185084284
12633257 1 17095511890322041640
12670545 47 18040156214456547607
13402501 40 18189613847811649429
13583140 156 18187092727895109699
14251764 3 17459167622099561701
14251764 38 18335137583708697205
14466204 15 18189324676791504146
14468879 13 18260828254323577481
14957384 54 18334288769168799978
15238133 3 17677885739398404826
15295992 7 18186803552015039435
18219364 16 18338530667727539067
18981168 100 18339352097550285810
192875 21 17917429800321897568
20567600 299 18057595460931892776
20645477 70 18411139134492417284
20681677 76 18260553367531267107
21095088 737 17843389924294855285
21475661 188 18114454566132041013
21864079 5 17971474258971908300
22749437 52 18342452672943175040
23227448 37 18411696595788883983
23557571 272 17096666459557182555
23559900 14 17240490195136412883
238 59 18271799129521081753
351380 180 18334290933879607975
3524813 1 18041555832650360989
469060 322 17616816973395061827
474 4 18269836428540889599
5252454 2 17983030121700321992
7164475 11 17842823684602954774
9709674 26 18259986006757377777

> <PUBCHEM_SHAPE_MULTIPOLES>
397.83
9.05
3.21
1.78
0.37
0.9
-0.74
3.06
0.37
-1.88
0.88
1.39
-0.45
1.04

> <PUBCHEM_SHAPE_SELFOVERLAP>
736.287

> <PUBCHEM_SHAPE_VOLUME>
254.9

> <PUBCHEM_COORDINATE_TYPE>
2
5
10

$$$$
