138225
  -OEChem-02172602253D

 19 18  0     1  0  0  0  0  0999 V2000
    3.6417   -0.4189    0.0394 S   0  0  0  0  0  0  0  0  0  0  0  0
    0.9756    0.1727   -0.4058 N   0  0  0  0  0  0  0  0  0  0  0  0
   -1.3211    0.5466    0.4234 C   0  0  1  0  0  0  0  0  0  0  0  0
   -2.0339   -0.4547   -0.5058 C   0  0  0  0  0  0  0  0  0  0  0  0
    0.1175    0.1474    0.7809 C   0  0  0  0  0  0  0  0  0  0  0  0
   -1.3602    1.9485   -0.1952 C   0  0  0  0  0  0  0  0  0  0  0  0
   -2.1244   -1.8617    0.0676 C   0  0  0  0  0  0  0  0  0  0  0  0
    2.1048   -0.0799   -0.2045 C   0  0  0  0  0  0  0  0  0  0  0  0
   -1.8882    0.5881    1.3632 H   0  0  0  0  0  0  0  0  0  0  0  0
   -3.0531   -0.0969   -0.6980 H   0  0  0  0  0  0  0  0  0  0  0  0
   -1.5296   -0.4973   -1.4787 H   0  0  0  0  0  0  0  0  0  0  0  0
    0.1318   -0.8426    1.2540 H   0  0  0  0  0  0  0  0  0  0  0  0
    0.4958    0.8581    1.5301 H   0  0  0  0  0  0  0  0  0  0  0  0
   -0.8674    1.9764   -1.1728 H   0  0  0  0  0  0  0  0  0  0  0  0
   -0.8667    2.6764    0.4575 H   0  0  0  0  0  0  0  0  0  0  0  0
   -2.3955    2.2777   -0.3352 H   0  0  0  0  0  0  0  0  0  0  0  0
   -1.1410   -2.3368    0.1262 H   0  0  0  0  0  0  0  0  0  0  0  0
   -2.5689   -1.8523    1.0677 H   0  0  0  0  0  0  0  0  0  0  0  0
   -2.7519   -2.4875   -0.5754 H   0  0  0  0  0  0  0  0  0  0  0  0
  1  8  2  0  0  0  0
  2  5  1  0  0  0  0
  2  8  2  0  0  0  0
  3  4  1  0  0  0  0
  3  5  1  0  0  0  0
  3  6  1  0  0  0  0
  3  9  1  0  0  0  0
  4  7  1  0  0  0  0
  4 10  1  0  0  0  0
  4 11  1  0  0  0  0
  5 12  1  0  0  0  0
  5 13  1  0  0  0  0
  6 14  1  0  0  0  0
  6 15  1  0  0  0  0
  6 16  1  0  0  0  0
  7 17  1  0  0  0  0
  7 18  1  0  0  0  0
  7 19  1  0  0  0  0
M  END
> <PUBCHEM_COMPOUND_CID>
138225

> <PUBCHEM_CONFORMER_RMSD>
0.6

> <PUBCHEM_CONFORMER_DIVERSEORDER>
1
33
36
12
26
35
13
30
27
37
16
31
23
29
15
2
25
5
34
17
38
19
4
6
3
24
21
28
32
11
10
9
14
20
22
18
8
7

> <PUBCHEM_MMFF94_PARTIAL_CHARGES>
4
1 -0.27
2 -0.55
5 0.25
8 0.57

> <PUBCHEM_EFFECTIVE_ROTOR_COUNT>
3

> <PUBCHEM_PHARMACOPHORE_FEATURES>
4
1 1 acceptor
1 2 acceptor
1 6 hydrophobe
1 7 hydrophobe

> <PUBCHEM_HEAVY_ATOM_COUNT>
8

> <PUBCHEM_ATOM_DEF_STEREO_COUNT>
0

> <PUBCHEM_ATOM_UDEF_STEREO_COUNT>
1

> <PUBCHEM_BOND_DEF_STEREO_COUNT>
0

> <PUBCHEM_BOND_UDEF_STEREO_COUNT>
0

> <PUBCHEM_ISOTOPIC_ATOM_COUNT>
0

> <PUBCHEM_COMPONENT_COUNT>
1

> <PUBCHEM_CACTVS_TAUTO_COUNT>
1

> <PUBCHEM_CONFORMER_ID>
00021BF100000001

> <PUBCHEM_MMFF94_ENERGY>
5.0305

> <PUBCHEM_FEATURE_SELFOVERLAP>
20.302

> <PUBCHEM_SHAPE_FINGERPRINT>
12716758 59 18269830913518051632
12897270 3 18409164437146392942
12932741 1 17774712087556992480
12932764 1 18337117774243332088
14325111 11 18412545380121084654
20711985 344 18339625785935879105
20871998 184 18201442484287344431
21061003 4 16988566831231826922
23552423 10 18260548973731990360
23552449 1 18412826867471462032
29004967 10 16558755615436206634
3248919 1 17417531302994218816

> <PUBCHEM_SHAPE_MULTIPOLES>
163.5
4.79
1.63
0.78
5.05
0.08
0.05
-1.41
-0.32
-1.65
-0.06
-0.04
0.02
0

> <PUBCHEM_SHAPE_SELFOVERLAP>
287.718

> <PUBCHEM_SHAPE_VOLUME>
108.3

> <PUBCHEM_COORDINATE_TYPE>
2
5
10

$$$$
