9167405
  -OEChem-02172602253D

 24 24  0     0  0  0  0  0  0999 V2000
    0.7471   -1.8781    0.3276 O   0  0  0  0  0  0  0  0  0  0  0  0
    2.6804   -0.0686    0.7657 O   0  0  0  0  0  0  0  0  0  0  0  0
    0.4920    0.4954    0.0900 C   0  0  0  0  0  0  0  0  0  0  0  0
   -0.0542   -0.7842    0.1904 C   0  0  0  0  0  0  0  0  0  0  0  0
   -2.2751    0.1501    0.0114 C   0  0  0  0  0  0  0  0  0  0  0  0
   -1.4379   -0.9569    0.1511 C   0  0  0  0  0  0  0  0  0  0  0  0
   -0.3452    1.6023   -0.0496 C   0  0  0  0  0  0  0  0  0  0  0  0
   -1.7287    1.4296   -0.0890 C   0  0  0  0  0  0  0  0  0  0  0  0
    1.9337    0.6979    0.1272 C   0  0  0  0  0  0  0  0  0  0  0  0
   -3.7544   -0.0341   -0.0314 C   0  0  0  0  0  0  0  0  0  0  0  0
    2.5635    1.8656   -0.6226 C   0  0  0  0  0  0  0  0  0  0  0  0
    1.1788   -2.5189   -0.8709 C   0  0  0  0  0  0  0  0  0  0  0  0
   -1.8592   -1.9564    0.2285 H   0  0  0  0  0  0  0  0  0  0  0  0
    0.0498    2.6122   -0.1166 H   0  0  0  0  0  0  0  0  0  0  0  0
   -2.3708    2.2998   -0.1969 H   0  0  0  0  0  0  0  0  0  0  0  0
   -4.0627   -0.8927    0.5748 H   0  0  0  0  0  0  0  0  0  0  0  0
   -4.2743    0.8431    0.3686 H   0  0  0  0  0  0  0  0  0  0  0  0
   -4.0830   -0.1962   -1.0627 H   0  0  0  0  0  0  0  0  0  0  0  0
    2.5943    2.7443    0.0261 H   0  0  0  0  0  0  0  0  0  0  0  0
    2.0072    2.0856   -1.5377 H   0  0  0  0  0  0  0  0  0  0  0  0
    3.5818    1.5926   -0.9159 H   0  0  0  0  0  0  0  0  0  0  0  0
    1.7224   -1.8201   -1.5146 H   0  0  0  0  0  0  0  0  0  0  0  0
    0.3216   -2.9347   -1.4100 H   0  0  0  0  0  0  0  0  0  0  0  0
    1.8506   -3.3375   -0.5986 H   0  0  0  0  0  0  0  0  0  0  0  0
  1  4  1  0  0  0  0
  1 12  1  0  0  0  0
  2  9  2  0  0  0  0
  3  4  2  0  0  0  0
  3  7  1  0  0  0  0
  3  9  1  0  0  0  0
  4  6  1  0  0  0  0
  5  6  2  0  0  0  0
  5  8  1  0  0  0  0
  5 10  1  0  0  0  0
  6 13  1  0  0  0  0
  7  8  2  0  0  0  0
  7 14  1  0  0  0  0
  8 15  1  0  0  0  0
  9 11  1  0  0  0  0
 10 16  1  0  0  0  0
 10 17  1  0  0  0  0
 10 18  1  0  0  0  0
 11 19  1  0  0  0  0
 11 20  1  0  0  0  0
 11 21  1  0  0  0  0
 12 22  1  0  0  0  0
 12 23  1  0  0  0  0
 12 24  1  0  0  0  0
M  END
> <PUBCHEM_COMPOUND_CID>
9167405

> <PUBCHEM_CONFORMER_RMSD>
0.6

> <PUBCHEM_CONFORMER_DIVERSEORDER>
2
1
5
3
4

> <PUBCHEM_MMFF94_PARTIAL_CHARGES>
15
1 -0.36
10 0.14
11 0.06
12 0.28
13 0.15
14 0.15
15 0.15
2 -0.57
3 0.09
4 0.08
5 -0.14
6 -0.15
7 -0.15
8 -0.15
9 0.42

> <PUBCHEM_EFFECTIVE_ROTOR_COUNT>
2

> <PUBCHEM_PHARMACOPHORE_FEATURES>
3
1 1 acceptor
1 2 acceptor
6 3 4 5 6 7 8 rings

> <PUBCHEM_HEAVY_ATOM_COUNT>
12

> <PUBCHEM_ATOM_DEF_STEREO_COUNT>
0

> <PUBCHEM_ATOM_UDEF_STEREO_COUNT>
0

> <PUBCHEM_BOND_DEF_STEREO_COUNT>
0

> <PUBCHEM_BOND_UDEF_STEREO_COUNT>
0

> <PUBCHEM_ISOTOPIC_ATOM_COUNT>
0

> <PUBCHEM_COMPONENT_COUNT>
1

> <PUBCHEM_CACTVS_TAUTO_COUNT>
2

> <PUBCHEM_CONFORMER_ID>
008BE22D00000002

> <PUBCHEM_MMFF94_ENERGY>
43.4946

> <PUBCHEM_FEATURE_SELFOVERLAP>
15.23

> <PUBCHEM_SHAPE_FINGERPRINT>
1 1 18413668015420389254
10219947 1 18333731355523084241
12524768 44 18336550421684707579
13380535 220 17834686997560872436
13380535 76 18409164437294365371
14325111 11 18335420218110111425
15775835 57 18262801898816921444
161256 15 18267591199705465903
16945 1 18411703179519892305
17990270 104 18194681471176242019
193761 8 18050568443595711921
19973954 147 18194964041570047209
20588541 1 18409169939310651035
20645476 183 17533510173008957374
20645477 70 18339918217854443823
20871998 184 17907590472612672238
21040471 1 18267019647069720208
21501502 16 18196375823132205265
23235685 24 18336260240756702793
2334 1 17834393797676949361
23402655 69 18266721538592306909
23463225 33 18334288764789196384
23552423 10 18264774255310213303
241688 4 17688876328337588064
2748010 2 17977664539326731249
5084963 1 18343865502493144936
528886 8 18338513161461796513
7364860 26 18200030629689467686
81228 2 17404293491848663738

> <PUBCHEM_SHAPE_MULTIPOLES>
235.22
4.26
2.28
0.75
1.96
1.01
-0.05
-1.1
-0.07
-1.24
-0.53
-0.25
0.1
-0.01

> <PUBCHEM_SHAPE_SELFOVERLAP>
486.102

> <PUBCHEM_SHAPE_VOLUME>
136.4

> <PUBCHEM_COORDINATE_TYPE>
2
5
10

$$$$
