6453359
  -OEChem-02172602363D

 68 72  0     1  0  0  0  0  0999 V2000
    1.4069   -2.2182    0.4902 O   0  0  0  0  0  0  0  0  0  0  0  0
   -1.8748   -1.1011   -0.6908 O   0  0  0  0  0  0  0  0  0  0  0  0
    0.8886   -0.5750   -1.0847 O   0  0  0  0  0  0  0  0  0  0  0  0
   -2.4081   -3.7975    0.2095 O   0  0  0  0  0  0  0  0  0  0  0  0
    0.1902   -4.7861    0.1995 O   0  0  0  0  0  0  0  0  0  0  0  0
    3.2489   -2.9535    2.3892 O   0  0  0  0  0  0  0  0  0  0  0  0
    3.1389    2.1396   -0.0097 O   0  0  0  0  0  0  0  0  0  0  0  0
   -3.2288   -2.6483   -1.7260 O   0  0  0  0  0  0  0  0  0  0  0  0
    3.4217   -1.6752   -1.4138 O   0  0  0  0  0  0  0  0  0  0  0  0
    6.0296   -1.5337   -1.2895 O   0  0  0  0  0  0  0  0  0  0  0  0
    7.8587    2.5637    0.2634 O   0  0  0  0  0  0  0  0  0  0  0  0
   -4.9833    1.6169    1.9632 O   0  0  0  0  0  0  0  0  0  0  0  0
   -7.4844    0.2312   -1.8791 O   0  0  0  0  0  0  0  0  0  0  0  0
   -1.6685    2.6663    2.6190 O   0  0  0  0  0  0  0  0  0  0  0  0
   -7.2802    1.7593    0.4223 O   0  0  0  0  0  0  0  0  0  0  0  0
   -2.7786    4.2074    0.5905 O   0  0  0  0  0  0  0  0  0  0  0  0
   -1.3459   -2.9901    0.7097 C   0  0  1  0  0  0  0  0  0  0  0  0
   -0.2098   -3.8745    1.2247 C   0  0  2  0  0  0  0  0  0  0  0  0
   -0.8572   -2.0588   -0.3992 C   0  0  2  0  0  0  0  0  0  0  0  0
    0.9895   -3.0034    1.6140 C   0  0  1  0  0  0  0  0  0  0  0  0
    0.4034   -1.3097    0.0386 C   0  0  1  0  0  0  0  0  0  0  0  0
    2.1881   -3.8325    2.0602 C   0  0  0  0  0  0  0  0  0  0  0  0
    2.0305    0.1309   -0.7732 C   0  0  0  0  0  0  0  0  0  0  0  0
   -3.0653   -1.6091   -1.1057 C   0  0  0  0  0  0  0  0  0  0  0  0
    2.0097    1.3908   -0.3013 C   0  0  0  0  0  0  0  0  0  0  0  0
    3.3399   -0.5307   -0.9884 C   0  0  0  0  0  0  0  0  0  0  0  0
   -4.1818   -0.7176   -0.7015 C   0  0  0  0  0  0  0  0  0  0  0  0
    4.5342    0.2644   -0.6642 C   0  0  0  0  0  0  0  0  0  0  0  0
    4.3699    1.5640   -0.1900 C   0  0  0  0  0  0  0  0  0  0  0  0
    0.7549    2.1268   -0.0647 C   0  0  0  0  0  0  0  0  0  0  0  0
    5.8145   -0.2699   -0.8292 C   0  0  0  0  0  0  0  0  0  0  0  0
   -5.3143   -0.6669   -1.4885 C   0  0  0  0  0  0  0  0  0  0  0  0
   -4.0519    0.0334    0.4488 C   0  0  0  0  0  0  0  0  0  0  0  0
    5.4869    2.3393    0.1223 C   0  0  0  0  0  0  0  0  0  0  0  0
    0.1252    2.0515    1.1779 C   0  0  0  0  0  0  0  0  0  0  0  0
    0.1964    2.8996   -1.0832 C   0  0  0  0  0  0  0  0  0  0  0  0
    6.9302    0.5074   -0.5156 C   0  0  0  0  0  0  0  0  0  0  0  0
    6.7670    1.8094   -0.0409 C   0  0  0  0  0  0  0  0  0  0  0  0
   -5.1001    0.8716    0.8287 C   0  0  0  0  0  0  0  0  0  0  0  0
   -6.3624    0.1715   -1.1087 C   0  0  0  0  0  0  0  0  0  0  0  0
   -1.0621    2.7486    1.4021 C   0  0  0  0  0  0  0  0  0  0  0  0
   -6.2553    0.9409    0.0499 C   0  0  0  0  0  0  0  0  0  0  0  0
   -0.9910    3.5963   -0.8591 C   0  0  0  0  0  0  0  0  0  0  0  0
   -1.6202    3.5210    0.3835 C   0  0  0  0  0  0  0  0  0  0  0  0
   -1.7568   -2.3939    1.5344 H   0  0  0  0  0  0  0  0  0  0  0  0
   -0.5477   -4.4757    2.0762 H   0  0  0  0  0  0  0  0  0  0  0  0
   -0.6469   -2.6228   -1.3183 H   0  0  0  0  0  0  0  0  0  0  0  0
    0.7178   -2.3129    2.4234 H   0  0  0  0  0  0  0  0  0  0  0  0
    0.1497   -0.6192    0.8497 H   0  0  0  0  0  0  0  0  0  0  0  0
    1.9481   -4.4361    2.9404 H   0  0  0  0  0  0  0  0  0  0  0  0
    2.5479   -4.4939    1.2655 H   0  0  0  0  0  0  0  0  0  0  0  0
   -2.6999   -4.3774    0.9334 H   0  0  0  0  0  0  0  0  0  0  0  0
   -0.5966   -5.2964   -0.0577 H   0  0  0  0  0  0  0  0  0  0  0  0
    3.4444   -2.4196    1.6001 H   0  0  0  0  0  0  0  0  0  0  0  0
   -5.3944   -1.2640   -2.3927 H   0  0  0  0  0  0  0  0  0  0  0  0
   -3.1631   -0.0217    1.0711 H   0  0  0  0  0  0  0  0  0  0  0  0
    5.3551    3.3533    0.4917 H   0  0  0  0  0  0  0  0  0  0  0  0
    0.5575    1.4602    1.9822 H   0  0  0  0  0  0  0  0  0  0  0  0
    0.6755    2.9683   -2.0568 H   0  0  0  0  0  0  0  0  0  0  0  0
    7.9302    0.0992   -0.6411 H   0  0  0  0  0  0  0  0  0  0  0  0
   -1.4150    4.1943   -1.6614 H   0  0  0  0  0  0  0  0  0  0  0  0
    5.1872   -1.9807   -1.4634 H   0  0  0  0  0  0  0  0  0  0  0  0
    7.5623    3.4355    0.5767 H   0  0  0  0  0  0  0  0  0  0  0  0
   -4.1180    1.4414    2.3709 H   0  0  0  0  0  0  0  0  0  0  0  0
   -7.3801   -0.3675   -2.6385 H   0  0  0  0  0  0  0  0  0  0  0  0
   -2.4753    3.2098    2.5959 H   0  0  0  0  0  0  0  0  0  0  0  0
   -7.0282    2.2115    1.2461 H   0  0  0  0  0  0  0  0  0  0  0  0
   -3.0155    4.6821   -0.2248 H   0  0  0  0  0  0  0  0  0  0  0  0
  1 20  1  0  0  0  0
  1 21  1  0  0  0  0
  2 19  1  0  0  0  0
  2 24  1  0  0  0  0
  3 21  1  0  0  0  0
  3 23  1  0  0  0  0
  4 17  1  0  0  0  0
  4 52  1  0  0  0  0
  5 18  1  0  0  0  0
  5 53  1  0  0  0  0
  6 22  1  0  0  0  0
  6 54  1  0  0  0  0
  7 25  1  0  0  0  0
  7 29  1  0  0  0  0
  8 24  2  0  0  0  0
  9 26  2  0  0  0  0
 10 31  1  0  0  0  0
 10 62  1  0  0  0  0
 11 38  1  0  0  0  0
 11 63  1  0  0  0  0
 12 39  1  0  0  0  0
 12 64  1  0  0  0  0
 13 40  1  0  0  0  0
 13 65  1  0  0  0  0
 14 41  1  0  0  0  0
 14 66  1  0  0  0  0
 15 42  1  0  0  0  0
 15 67  1  0  0  0  0
 16 44  1  0  0  0  0
 16 68  1  0  0  0  0
 17 18  1  0  0  0  0
 17 19  1  0  0  0  0
 17 45  1  0  0  0  0
 18 20  1  0  0  0  0
 18 46  1  0  0  0  0
 19 21  1  0  0  0  0
 19 47  1  0  0  0  0
 20 22  1  0  0  0  0
 20 48  1  0  0  0  0
 21 49  1  0  0  0  0
 22 50  1  0  0  0  0
 22 51  1  0  0  0  0
 23 25  2  0  0  0  0
 23 26  1  0  0  0  0
 24 27  1  0  0  0  0
 25 30  1  0  0  0  0
 26 28  1  0  0  0  0
 27 32  2  0  0  0  0
 27 33  1  0  0  0  0
 28 29  1  0  0  0  0
 28 31  2  0  0  0  0
 29 34  2  0  0  0  0
 30 35  2  0  0  0  0
 30 36  1  0  0  0  0
 31 37  1  0  0  0  0
 32 40  1  0  0  0  0
 32 55  1  0  0  0  0
 33 39  2  0  0  0  0
 33 56  1  0  0  0  0
 34 38  1  0  0  0  0
 34 57  1  0  0  0  0
 35 41  1  0  0  0  0
 35 58  1  0  0  0  0
 36 43  2  0  0  0  0
 36 59  1  0  0  0  0
 37 38  2  0  0  0  0
 37 60  1  0  0  0  0
 39 42  1  0  0  0  0
 40 42  2  0  0  0  0
 41 44  2  0  0  0  0
 43 44  1  0  0  0  0
 43 61  1  0  0  0  0
M  END
> <PUBCHEM_COMPOUND_CID>
6453359

> <PUBCHEM_CONFORMER_RMSD>
1

> <PUBCHEM_CONFORMER_DIVERSEORDER>
1
270
207
14
354
172
352
150
324
265
58
216
377
247
303
141
35
165
166
338
179
357
379
308
196
133
371
278
156
349
380
284
273
291
388
148
125
376
170
185
175
343
149
206
302
292
215
198
276
382
51
123
33
290
228
140
261
346
314
323
161
15
42
65
27
142
214
143
367
130
327
299
75
46
251
118
212
81
87
256
386
210
300
390
221
332
204
362
68
101
253
79
317
151
71
245
184
61
191
84
44
318
144
294
339
63
229
197
320
268
351
330
305
384
115
337
381
366
131
62
254
50
43
38
306
378
93
49
218
269
329
31
234
392
368
122
188
233
78
103
373
209
146
301
86
283
309
22
312
190
236
134
2
154
281
296
111
5
89
180
109
304
159
266
167
374
335
244
135
195
186
322
55
211
389
12
153
353
255
59
113
139
342
260
336
274
60
90
315
311
155
127
82
243
316
235
208
375
359
262
13
88
3
202
173
181
222
132
267
347
137
54
348
128
83
370
334
297
4
199
26
341
220
189
287
201
393
96
356
48
120
358
313
369
45
340
289
364
160
70
240
157
107
104
391
344
85
178
72
97
310
224
57
126
147
385
20
298
30
387
232
321
331
95
117
383
219
110
41
174
275
8
286
66
258
355
29
92
205
37
194
119
10
114
249
11
40
47
248
350
183
285
36
129
91
203
136
277
64
105
177
145
6
192
325
9
239
279
257
280
226
293
242
16
223
99
217
124
319
17
363
328
73
288
112
18
213
53
28
182
25
259
252
163
24
272
106
138
32
271
246
361
116
7
169
108
121
74
67
176
365
264
231
326
56
295
345
193
19
80
307
39
69
187
250
263
372
164
94
76
21
333
34
98
102
227
158
241
171
200
77
100
237
152
230
238
162
225
168
23
360
282
52

> <PUBCHEM_MMFF94_PARTIAL_CHARGES>
61
1 -0.56
10 -0.53
11 -0.53
12 -0.53
13 -0.53
14 -0.53
15 -0.53
16 -0.53
17 0.28
18 0.28
19 0.28
2 -0.43
20 0.28
21 0.56
22 0.28
23 0.09
24 0.63
25 0.05
26 0.47
27 0.09
28 0.09
29 0.08
3 -0.36
30 0.03
31 0.08
32 -0.15
33 -0.15
34 -0.15
35 -0.15
36 -0.15
37 -0.15
38 0.08
39 0.08
4 -0.68
40 0.08
41 0.08
42 0.08
43 -0.15
44 0.08
5 -0.68
52 0.4
53 0.4
54 0.4
55 0.15
56 0.15
57 0.15
58 0.15
59 0.15
6 -0.68
60 0.15
61 0.15
62 0.45
63 0.45
64 0.45
65 0.45
66 0.45
67 0.45
68 0.45
7 -0.16
8 -0.57
9 -0.57

> <PUBCHEM_EFFECTIVE_ROTOR_COUNT>
8.2

> <PUBCHEM_PHARMACOPHORE_FEATURES>
23
1 1 acceptor
1 10 donor
1 11 donor
1 12 donor
1 13 donor
1 14 donor
1 15 donor
1 16 donor
1 3 acceptor
1 4 acceptor
1 4 donor
1 5 acceptor
1 5 donor
1 6 acceptor
1 6 donor
1 7 acceptor
1 8 acceptor
1 9 acceptor
6 1 17 18 19 20 21 rings
6 27 32 33 39 40 42 rings
6 28 29 31 34 37 38 rings
6 30 35 36 41 43 44 rings
6 7 23 25 26 28 29 rings

> <PUBCHEM_HEAVY_ATOM_COUNT>
44

> <PUBCHEM_ATOM_DEF_STEREO_COUNT>
5

> <PUBCHEM_ATOM_UDEF_STEREO_COUNT>
0

> <PUBCHEM_BOND_DEF_STEREO_COUNT>
0

> <PUBCHEM_BOND_UDEF_STEREO_COUNT>
0

> <PUBCHEM_ISOTOPIC_ATOM_COUNT>
0

> <PUBCHEM_COMPONENT_COUNT>
1

> <PUBCHEM_CACTVS_TAUTO_COUNT>
998

> <PUBCHEM_CONFORMER_ID>
0062786F00000001

> <PUBCHEM_MMFF94_ENERGY>
145.0673

> <PUBCHEM_FEATURE_SELFOVERLAP>
116.884

> <PUBCHEM_SHAPE_FINGERPRINT>
10006869 2 18265607693872245015
10165383 225 18114172073617288391
10190108 129 18116733836271753777
10190206 1 18410015403633990172
10675989 125 18334852840530340854
10906281 52 18266475363592826436
11007060 377 18342469140217442904
11135926 11 18333731299978815585
11136131 41 18115018580963344491
11513181 2 17772762567826482519
12788726 201 18342454816121072410
13811026 1 18341896333403254198
13947930 73 17318197238984703891
14028597 1 18334848395139203538
140371 6 18192724556097597452
14394314 77 18271251534825518897
15001296 14 18408885100937185139
15276724 80 18343021043298285676
15297060 5 16988572256487795067
15351339 4 18338508651619457513
15361156 5 18269569380791999684
15406563 185 18202843266802196032
16112460 7 18343028769886668936
17627616 140 18335979753865122003
19311894 1 18339365291606014039
19319366 153 18334852788748867759
21133410 62 18333730213874173427
22440779 20 15869449987894253306
24893992 56 18335696196567920199
4144715 1 17974576002790567290
469060 322 17749401329553695901
6009941 240 17895193358634148304
7226269 152 18337953497443095740

> <PUBCHEM_SHAPE_MULTIPOLES>
811.59
16.31
5.62
1.7
2.15
2.73
-0.6
-8.44
4.63
0.04
-2.53
-0.94
0.51
-1.76

> <PUBCHEM_SHAPE_SELFOVERLAP>
1804.554

> <PUBCHEM_SHAPE_VOLUME>
426.5

> <PUBCHEM_COORDINATE_TYPE>
2
5
10

$$$$
