131752962
  -OEChem-02172602243D

 30 30  0     0  0  0  0  0  0999 V2000
    2.2813    0.3574   -0.0527 O   0  0  0  0  0  0  0  0  0  0  0  0
   -5.8772   -1.0551   -1.1006 O   0  0  0  0  0  0  0  0  0  0  0  0
   -6.3361    1.0608    0.6430 O   0  0  0  0  0  0  0  0  0  0  0  0
    5.3750   -1.2535    0.7673 O   0  0  0  0  0  0  0  0  0  0  0  0
    5.6931    0.8983   -1.0043 O   0  0  0  0  0  0  0  0  0  0  0  0
    1.5478   -1.6874   -0.8388 O   0  0  0  0  0  0  0  0  0  0  0  0
    3.4943   -0.8922    1.9895 O   0  0  0  0  0  0  0  0  0  0  0  0
    3.9727    2.3456   -0.6762 O   0  0  0  0  0  0  0  0  0  0  0  0
   -2.4632   -0.2584   -0.0642 C   0  0  0  0  0  0  0  0  0  0  0  0
   -3.5354   -0.8800   -0.7044 C   0  0  0  0  0  0  0  0  0  0  0  0
   -2.6938    0.8032    0.8108 C   0  0  0  0  0  0  0  0  0  0  0  0
    3.6406   -0.0302   -0.2794 C   0  0  0  0  0  0  0  0  0  0  0  0
   -1.1051   -0.7174   -0.3096 C   0  0  0  0  0  0  0  0  0  0  0  0
   -4.8382   -0.4401   -0.4697 C   0  0  0  0  0  0  0  0  0  0  0  0
   -5.0687    0.6216    0.4053 C   0  0  0  0  0  0  0  0  0  0  0  0
   -3.9965    1.2433    1.0454 C   0  0  0  0  0  0  0  0  0  0  0  0
    0.0155    0.0017   -0.0782 C   0  0  0  0  0  0  0  0  0  0  0  0
    1.3456   -0.5743   -0.3797 C   0  0  0  0  0  0  0  0  0  0  0  0
    4.1295   -0.7503    0.9540 C   0  0  0  0  0  0  0  0  0  0  0  0
    4.4187    1.2070   -0.6574 C   0  0  0  0  0  0  0  0  0  0  0  0
   -3.3606   -1.7075   -1.3889 H   0  0  0  0  0  0  0  0  0  0  0  0
    3.6930   -0.7123   -1.1376 H   0  0  0  0  0  0  0  0  0  0  0  0
   -1.8928    1.3041    1.3465 H   0  0  0  0  0  0  0  0  0  0  0  0
   -1.0180   -1.7200   -0.7233 H   0  0  0  0  0  0  0  0  0  0  0  0
   -4.1628    2.0686    1.7327 H   0  0  0  0  0  0  0  0  0  0  0  0
   -0.0047    1.0143    0.3088 H   0  0  0  0  0  0  0  0  0  0  0  0
   -5.5293   -1.7660   -1.6659 H   0  0  0  0  0  0  0  0  0  0  0  0
   -6.3020    1.8009    1.2731 H   0  0  0  0  0  0  0  0  0  0  0  0
    5.6990   -1.7327    1.5596 H   0  0  0  0  0  0  0  0  0  0  0  0
    6.2055    1.6941   -1.2621 H   0  0  0  0  0  0  0  0  0  0  0  0
  1 12  1  0  0  0  0
  1 18  1  0  0  0  0
  2 14  1  0  0  0  0
  2 27  1  0  0  0  0
  3 15  1  0  0  0  0
  3 28  1  0  0  0  0
  4 19  1  0  0  0  0
  4 29  1  0  0  0  0
  5 20  1  0  0  0  0
  5 30  1  0  0  0  0
  6 18  2  0  0  0  0
  7 19  2  0  0  0  0
  8 20  2  0  0  0  0
  9 10  2  0  0  0  0
  9 11  1  0  0  0  0
  9 13  1  0  0  0  0
 10 14  1  0  0  0  0
 10 21  1  0  0  0  0
 11 16  2  0  0  0  0
 11 23  1  0  0  0  0
 12 19  1  0  0  0  0
 12 20  1  0  0  0  0
 12 22  1  0  0  0  0
 13 17  2  0  0  0  0
 13 24  1  0  0  0  0
 14 15  2  0  0  0  0
 15 16  1  0  0  0  0
 16 25  1  0  0  0  0
 17 18  1  0  0  0  0
 17 26  1  0  0  0  0
M  END
> <PUBCHEM_COMPOUND_CID>
131752962

> <PUBCHEM_CONFORMER_RMSD>
0.8

> <PUBCHEM_CONFORMER_DIVERSEORDER>
1
27
12
15
6
26
21
35
29
39
23
19
33
24
31
37
36
5
22
30
16
18
28
11
32
34
20
3
7
14
13
10
8
17
25
38
4
2
9

> <PUBCHEM_MMFF94_PARTIAL_CHARGES>
29
1 -0.43
10 -0.15
11 -0.15
12 0.4
13 -0.18
14 0.08
15 0.08
16 -0.15
17 -0.14
18 0.71
19 0.66
2 -0.53
20 0.66
21 0.15
23 0.15
24 0.15
25 0.15
26 0.15
27 0.45
28 0.45
29 0.5
3 -0.53
30 0.5
4 -0.65
5 -0.65
6 -0.57
7 -0.57
8 -0.57
9 0.03

> <PUBCHEM_EFFECTIVE_ROTOR_COUNT>
6

> <PUBCHEM_PHARMACOPHORE_FEATURES>
11
1 12 anion
1 2 donor
1 3 donor
1 4 acceptor
1 5 acceptor
1 6 acceptor
1 7 acceptor
1 8 acceptor
3 4 7 19 anion
3 5 8 20 anion
6 9 10 11 14 15 16 rings

> <PUBCHEM_HEAVY_ATOM_COUNT>
20

> <PUBCHEM_ATOM_DEF_STEREO_COUNT>
0

> <PUBCHEM_ATOM_UDEF_STEREO_COUNT>
0

> <PUBCHEM_BOND_DEF_STEREO_COUNT>
1

> <PUBCHEM_BOND_UDEF_STEREO_COUNT>
0

> <PUBCHEM_ISOTOPIC_ATOM_COUNT>
0

> <PUBCHEM_COMPONENT_COUNT>
1

> <PUBCHEM_CACTVS_TAUTO_COUNT>
16

> <PUBCHEM_CONFORMER_ID>
07DA640200000001

> <PUBCHEM_MMFF94_ENERGY>
43.3166

> <PUBCHEM_FEATURE_SELFOVERLAP>
56.471

> <PUBCHEM_SHAPE_FINGERPRINT>
10354089 29 18186525419082177700
10670039 82 17845951640712736928
10912923 1 18409164424451473107
11089746 13 18409451423035889644
12107183 9 17690280408859912923
12236239 1 18409729564811757079
12390115 104 16414373165274650169
12596602 18 18041003955449514249
12616971 3 18408598158530156695
12670546 56 17822285764851409004
12916748 109 15841552981036623322
13167372 99 18336266743358619261
13533116 47 17603863364899234642
13583140 156 17603873367798828451
13675066 3 15719393940624125747
13955234 65 17530956974334767730
1420 363 15985105227991585599
14251764 18 18410290316285280762
14341114 176 17458348528522641612
14386348 63 15213021526804936930
14528608 73 18272091638142182012
15142526 21 17826514654724828920
15788980 27 15864070975100145347
17834072 33 18341894112609561581
17844677 252 17313383396420349269
19489759 90 17989201534685722443
20281389 69 18187645782929345117
20645477 70 17676478424618513474
21033648 29 16733250335467893853
212847 35 18344145895465060216
220451 1 17749114395778851515
2215653 11 14996275890949634451
2297311 6 16845581932872824185
23081809 10 18412823590616786287
23402539 116 18130780153826049535
23557571 272 17060070254345732229
23559900 14 17774727441648753783
268830 7 18334007319734988012
300161 21 18040711502262178686
34797466 226 16343144747999165937
3545911 37 17704356541855935951
474 4 18188495786372940196
5104073 3 18187645850846715810
542803 24 18409449189325549215
8272917 22 18261112950821314682
90127 26 17240480273724867268

> <PUBCHEM_SHAPE_MULTIPOLES>
364.64
15.59
1.51
1.15
2.85
0.36
-0.34
2.41
0.11
-0.56
0.2
-0.88
-0.07
-2.28

> <PUBCHEM_SHAPE_SELFOVERLAP>
766.585

> <PUBCHEM_SHAPE_VOLUME>
203.5

> <PUBCHEM_COORDINATE_TYPE>
2
5
10

$$$$
