5280657
  -OEChem-02172602383D

 23 22  0     0  0  0  0  0  0999 V2000
   -3.7226   -1.1895   -0.4134 O   0  0  0  0  0  0  0  0  0  0  0  0
   -2.0894   -2.7334    0.3193 O   0  0  0  0  0  0  0  0  0  0  0  0
   -2.2190    3.0455   -0.1600 O   0  0  0  0  0  0  0  0  0  0  0  0
   -1.9811    1.5069    1.4987 O   0  0  0  0  0  0  0  0  0  0  0  0
    2.6877   -1.6544    0.4796 O   0  0  0  0  0  0  0  0  0  0  0  0
    4.6785   -0.1351    0.1845 O   0  0  0  0  0  0  0  0  0  0  0  0
    3.3111    1.5699   -0.5251 O   0  0  0  0  0  0  0  0  0  0  0  0
   -1.4235   -0.5526   -0.3548 C   0  0  0  0  0  0  0  0  0  0  0  0
   -1.7654    0.8415   -0.8458 C   0  0  0  0  0  0  0  0  0  0  0  0
   -0.0179   -0.8715   -0.0784 C   0  0  0  0  0  0  0  0  0  0  0  0
   -2.3948   -1.4733   -0.1582 C   0  0  0  0  0  0  0  0  0  0  0  0
   -2.0013    1.7896    0.3101 C   0  0  0  0  0  0  0  0  0  0  0  0
    1.0331   -0.0520   -0.2311 C   0  0  0  0  0  0  0  0  0  0  0  0
    2.3959   -0.5358    0.0908 C   0  0  0  0  0  0  0  0  0  0  0  0
    3.5087    0.4441   -0.1163 C   0  0  0  0  0  0  0  0  0  0  0  0
   -2.6874    0.8204   -1.4403 H   0  0  0  0  0  0  0  0  0  0  0  0
   -0.9909    1.2426   -1.5068 H   0  0  0  0  0  0  0  0  0  0  0  0
    0.1744   -1.8815    0.2786 H   0  0  0  0  0  0  0  0  0  0  0  0
    0.9293    0.9690   -0.5741 H   0  0  0  0  0  0  0  0  0  0  0  0
   -4.2328   -1.9879   -0.1974 H   0  0  0  0  0  0  0  0  0  0  0  0
   -2.9255   -3.2238    0.3889 H   0  0  0  0  0  0  0  0  0  0  0  0
   -2.3634    3.6879    0.5672 H   0  0  0  0  0  0  0  0  0  0  0  0
    5.4385    0.4701    0.0495 H   0  0  0  0  0  0  0  0  0  0  0  0
  1 11  1  0  0  0  0
  1 20  1  0  0  0  0
  2 11  1  0  0  0  0
  2 21  1  0  0  0  0
  3 12  1  0  0  0  0
  3 22  1  0  0  0  0
  4 12  2  0  0  0  0
  5 14  2  0  0  0  0
  6 15  1  0  0  0  0
  6 23  1  0  0  0  0
  7 15  2  0  0  0  0
  8  9  1  0  0  0  0
  8 10  1  0  0  0  0
  8 11  2  0  0  0  0
  9 12  1  0  0  0  0
  9 16  1  0  0  0  0
  9 17  1  0  0  0  0
 10 13  2  0  0  0  0
 10 18  1  0  0  0  0
 13 14  1  0  0  0  0
 13 19  1  0  0  0  0
 14 15  1  0  0  0  0
M  END
> <PUBCHEM_COMPOUND_CID>
5280657

> <PUBCHEM_CONFORMER_RMSD>
0.6

> <PUBCHEM_CONFORMER_DIVERSEORDER>
1
24
35
7
57
56
17
28
64
58
32
52
55
51
59
38
21
33
15
41
29
61
30
63
13
19
26
44
53
47
49
48
40
8
4
62
16
37
3
45
5
46
10
6
39
23
54
60
2
65
11
36
9
27
43
34
25
14
18
50
20
12
31
42
22

> <PUBCHEM_MMFF94_PARTIAL_CHARGES>
21
1 -0.53
10 -0.15
11 0.15
12 0.66
13 -0.14
14 0.56
15 0.72
18 0.15
19 0.15
2 -0.53
20 0.45
21 0.45
22 0.5
23 0.5
3 -0.65
4 -0.57
5 -0.57
6 -0.65
7 -0.57
8 -0.14
9 0.2

> <PUBCHEM_EFFECTIVE_ROTOR_COUNT>
5

> <PUBCHEM_PHARMACOPHORE_FEATURES>
10
1 1 donor
1 2 donor
1 3 acceptor
1 4 acceptor
1 5 acceptor
1 6 acceptor
1 7 acceptor
3 1 2 11 anion
3 3 4 12 anion
3 6 7 15 anion

> <PUBCHEM_HEAVY_ATOM_COUNT>
15

> <PUBCHEM_ATOM_DEF_STEREO_COUNT>
0

> <PUBCHEM_ATOM_UDEF_STEREO_COUNT>
0

> <PUBCHEM_BOND_DEF_STEREO_COUNT>
1

> <PUBCHEM_BOND_UDEF_STEREO_COUNT>
0

> <PUBCHEM_ISOTOPIC_ATOM_COUNT>
0

> <PUBCHEM_COMPONENT_COUNT>
1

> <PUBCHEM_CACTVS_TAUTO_COUNT>
4

> <PUBCHEM_CONFORMER_ID>
0050939100000001

> <PUBCHEM_MMFF94_ENERGY>
22.7423

> <PUBCHEM_FEATURE_SELFOVERLAP>
50.912

> <PUBCHEM_SHAPE_FINGERPRINT>
12162725 195 18408039624246006396
12932764 1 17676769743512320062
13764800 53 17703237225764816777
14144814 61 18335979788156158466
15442244 35 18264483980257041882
15775835 57 18336550391514727304
17802600 8 18342451582316874256
18522853 276 18339919415685958948
200 152 18338507650939861999
20510252 161 18413670197358740635
21501502 16 18337952298973380598
21524375 3 17840860781532341845
22959321 54 18264207083652191244
2306618 200 18040984142396287861
23402539 116 18271799160023794111
23557571 272 18202009828208515868
25610 137 18265054819521839638
3312278 4 18262235650397357499
58051976 378 18412542141547484446
6992083 37 18041282067250664540
74978 22 18266178336080639582
81228 2 18341348742205377963

> <PUBCHEM_SHAPE_MULTIPOLES>
267.61
6.87
2.57
0.82
6.73
0.69
0.12
-0.01
-0.03
-2.57
0.26
-0.32
0.22
-0.53

> <PUBCHEM_SHAPE_SELFOVERLAP>
536.905

> <PUBCHEM_SHAPE_VOLUME>
153.8

> <PUBCHEM_COORDINATE_TYPE>
2
5
10

$$$$
