69061
  -OEChem-02172602593D

 25 27  0     0  0  0  0  0  0999 V2000
    4.5969   -0.1531   -0.0003 O   0  0  0  0  0  0  0  0  0  0  0  0
    0.3978   -0.3704    0.0001 C   0  0  0  0  0  0  0  0  0  0  0  0
   -1.0420   -0.3935    0.0001 C   0  0  0  0  0  0  0  0  0  0  0  0
    1.0704    0.8794    0.0001 C   0  0  0  0  0  0  0  0  0  0  0  0
   -1.7538    0.8346    0.0000 C   0  0  0  0  0  0  0  0  0  0  0  0
    0.3347    2.0673    0.0002 C   0  0  0  0  0  0  0  0  0  0  0  0
   -1.0562    2.0451    0.0001 C   0  0  0  0  0  0  0  0  0  0  0  0
    1.2115   -1.5310    0.0002 C   0  0  0  0  0  0  0  0  0  0  0  0
   -1.8188   -1.5792    0.0001 C   0  0  0  0  0  0  0  0  0  0  0  0
    2.4747    0.9357    0.0000 C   0  0  0  0  0  0  0  0  0  0  0  0
   -3.1592    0.8464   -0.0002 C   0  0  0  0  0  0  0  0  0  0  0  0
    3.2390   -0.2271   -0.0002 C   0  0  0  0  0  0  0  0  0  0  0  0
    2.6072   -1.4610    0.0000 C   0  0  0  0  0  0  0  0  0  0  0  0
   -3.2160   -1.5533    0.0001 C   0  0  0  0  0  0  0  0  0  0  0  0
   -3.8862   -0.3400   -0.0003 C   0  0  0  0  0  0  0  0  0  0  0  0
    0.8375    3.0326    0.0003 H   0  0  0  0  0  0  0  0  0  0  0  0
   -1.5897    2.9939    0.0001 H   0  0  0  0  0  0  0  0  0  0  0  0
    0.7720   -2.5252    0.0003 H   0  0  0  0  0  0  0  0  0  0  0  0
   -1.3482   -2.5591    0.0003 H   0  0  0  0  0  0  0  0  0  0  0  0
    2.9776    1.9019   -0.0001 H   0  0  0  0  0  0  0  0  0  0  0  0
   -3.7045    1.7885   -0.0004 H   0  0  0  0  0  0  0  0  0  0  0  0
    3.1901   -2.3781    0.0000 H   0  0  0  0  0  0  0  0  0  0  0  0
   -3.7751   -2.4845    0.0001 H   0  0  0  0  0  0  0  0  0  0  0  0
   -4.9716   -0.3146   -0.0005 H   0  0  0  0  0  0  0  0  0  0  0  0
    4.8628    0.7825   -0.0003 H   0  0  0  0  0  0  0  0  0  0  0  0
  1 12  1  0  0  0  0
  1 25  1  0  0  0  0
  2  3  1  0  0  0  0
  2  4  2  0  0  0  0
  2  8  1  0  0  0  0
  3  5  1  0  0  0  0
  3  9  2  0  0  0  0
  4  6  1  0  0  0  0
  4 10  1  0  0  0  0
  5  7  1  0  0  0  0
  5 11  2  0  0  0  0
  6  7  2  0  0  0  0
  6 16  1  0  0  0  0
  7 17  1  0  0  0  0
  8 13  2  0  0  0  0
  8 18  1  0  0  0  0
  9 14  1  0  0  0  0
  9 19  1  0  0  0  0
 10 12  2  0  0  0  0
 10 20  1  0  0  0  0
 11 15  1  0  0  0  0
 11 21  1  0  0  0  0
 12 13  1  0  0  0  0
 13 22  1  0  0  0  0
 14 15  2  0  0  0  0
 14 23  1  0  0  0  0
 15 24  1  0  0  0  0
M  END
> <PUBCHEM_COMPOUND_CID>
69061

> <PUBCHEM_CONFORMER_RMSD>
0.4

> <PUBCHEM_CONFORMER_DIVERSEORDER>
1

> <PUBCHEM_MMFF94_PARTIAL_CHARGES>
21
1 -0.53
10 -0.15
11 -0.15
12 0.08
13 -0.15
14 -0.15
15 -0.15
16 0.15
17 0.15
18 0.15
19 0.15
20 0.15
21 0.15
22 0.15
23 0.15
24 0.15
25 0.45
6 -0.15
7 -0.15
8 -0.15
9 -0.15

> <PUBCHEM_EFFECTIVE_ROTOR_COUNT>
0

> <PUBCHEM_PHARMACOPHORE_FEATURES>
4
1 1 donor
6 2 3 4 5 6 7 rings
6 2 4 8 10 12 13 rings
6 3 5 9 11 14 15 rings

> <PUBCHEM_HEAVY_ATOM_COUNT>
15

> <PUBCHEM_ATOM_DEF_STEREO_COUNT>
0

> <PUBCHEM_ATOM_UDEF_STEREO_COUNT>
0

> <PUBCHEM_BOND_DEF_STEREO_COUNT>
0

> <PUBCHEM_BOND_UDEF_STEREO_COUNT>
0

> <PUBCHEM_ISOTOPIC_ATOM_COUNT>
0

> <PUBCHEM_COMPONENT_COUNT>
1

> <PUBCHEM_CACTVS_TAUTO_COUNT>
3

> <PUBCHEM_CONFORMER_ID>
00010DC500000001

> <PUBCHEM_MMFF94_ENERGY>
49.6075

> <PUBCHEM_FEATURE_SELFOVERLAP>
20.346

> <PUBCHEM_SHAPE_FINGERPRINT>
10608611 8 18411132537132597657
10618630 7 18410012130451639660
10967382 1 18410856606926751271
11132069 177 18411695487185908128
11471102 20 18410288151083687029
11543360 7 15647061515823725739
11806522 49 18338232785975724967
12032990 46 18411141350341899695
12251169 10 18342464737901688449
12382932 28 18341332206085305883
13140716 1 18339366391117148489
13221675 6 18411419501024537742
13288520 33 18412547579107521054
14115302 16 17968105251895734007
14144814 61 18411419492582289827
15196674 1 18410856589709848388
15375462 189 18259704480087819299
15442244 35 18122062005438124394
15536298 74 18271525407150231488
16945 1 18338517443391287588
17804303 29 18342461456056278080
18522853 276 18413107268542415736
19107657 46 18411699880810981287
193761 8 17762055437205197095
19591789 44 16173147335430850925
200 152 18059847385858227207
20201158 50 18409448089698052267
20510252 161 18128818547097914041
20871998 184 18201999889379704551
21029758 11 18342730819715980345
21267235 1 18410583898115714631
21501502 16 18266460897599498210
221490 88 18119253015158975195
22213442 358 18411699919629035231
22721475 48 18410859866901848481
2334 1 18122626325280079333
23402539 116 18341040865516137799
23463225 33 18409449189072322164
23557571 272 18201166455640161052
23559900 14 18268708308421109910
2748010 2 18194396921087395405
2871803 45 18335698330027105190
3312278 4 18410013217073071321
335352 9 18122626046091329301
34934 24 18410003308752415339
427121 178 15693258399367036985
5104073 3 18410855460154562528
528886 8 18411414012072086410
7364860 26 18197497543761971617
8809292 202 18188494682613954435
9709674 26 18411986840561571470

> <PUBCHEM_SHAPE_MULTIPOLES>
302.82
6.41
2.06
0.61
1.6
0.37
0
-1.62
0
-0.41
0
-0.03
0
0

> <PUBCHEM_SHAPE_SELFOVERLAP>
685.739

> <PUBCHEM_SHAPE_VOLUME>
159.6

> <PUBCHEM_COORDINATE_TYPE>
2
5
10

$$$$
