12305593
  -OEChem-02172602423D

 41 43  0     1  0  0  0  0  0999 V2000
   -3.4739   -1.8679   -1.6724 O   0  0  0  0  0  0  0  0  0  0  0  0
   -3.8524   -2.1858    1.0609 O   0  0  0  0  0  0  0  0  0  0  0  0
    1.7182   -3.2210   -0.0240 O   0  0  0  0  0  0  0  0  0  0  0  0
    4.0170   -2.2544    1.2039 O   0  0  0  0  0  0  0  0  0  0  0  0
    0.3377    2.6663    0.1444 N   0  0  2  0  0  0  0  0  0  0  0  0
   -0.3466    1.8666   -0.9075 C   0  0  2  0  0  0  0  0  0  0  0  0
   -1.2877    0.7838   -0.3729 C   0  0  0  0  0  0  0  0  0  0  0  0
   -0.5194    2.9013    1.3124 C   0  0  0  0  0  0  0  0  0  0  0  0
   -0.8569    1.5714    1.9785 C   0  0  0  0  0  0  0  0  0  0  0  0
   -1.5272    0.6457    1.0053 C   0  0  0  0  0  0  0  0  0  0  0  0
    0.7338    1.2195   -1.7956 C   0  0  0  0  0  0  0  0  0  0  0  0
    0.8079    3.9567   -0.3742 C   0  0  0  0  0  0  0  0  0  0  0  0
   -1.9753   -0.0632   -1.2596 C   0  0  0  0  0  0  0  0  0  0  0  0
    1.6040    0.2939   -1.0001 C   0  0  0  0  0  0  0  0  0  0  0  0
   -2.3763   -0.3661    1.4766 C   0  0  0  0  0  0  0  0  0  0  0  0
   -2.8319   -1.0580   -0.7848 C   0  0  0  0  0  0  0  0  0  0  0  0
   -3.0248   -1.2156    0.5835 C   0  0  0  0  0  0  0  0  0  0  0  0
    1.2552   -1.0473   -0.8790 C   0  0  0  0  0  0  0  0  0  0  0  0
    2.7534    0.7834   -0.3881 C   0  0  0  0  0  0  0  0  0  0  0  0
    2.0644   -1.9083   -0.1379 C   0  0  0  0  0  0  0  0  0  0  0  0
    3.5627   -0.0776    0.3529 C   0  0  0  0  0  0  0  0  0  0  0  0
    3.2182   -1.4235    0.4779 C   0  0  0  0  0  0  0  0  0  0  0  0
   -0.9710    2.5341   -1.5181 H   1  0  0  0  0  0  0  0  0  0  0  0
   -1.4355    3.4362    1.0268 H   0  0  0  0  0  0  0  0  0  0  0  0
    0.0053    3.5214    2.0497 H   0  0  0  0  0  0  0  0  0  0  0  0
   -1.5176    1.7641    2.8322 H   0  0  0  0  0  0  0  0  0  0  0  0
    0.0520    1.0897    2.3601 H   0  0  0  0  0  0  0  0  0  0  0  0
    1.3564    1.9789   -2.2846 H   0  0  0  0  0  0  0  0  0  0  0  0
    0.2885    0.6710   -2.6353 H   0  0  0  0  0  0  0  0  0  0  0  0
    1.5167    3.8336   -1.1979 H   0  0  0  0  0  0  0  0  0  0  0  0
    1.3468    4.5076    0.4053 H   0  0  0  0  0  0  0  0  0  0  0  0
   -0.0200    4.5837   -0.7247 H   0  0  0  0  0  0  0  0  0  0  0  0
   -1.8506    0.0514   -2.3338 H   0  0  0  0  0  0  0  0  0  0  0  0
   -2.5351   -0.4773    2.5469 H   0  0  0  0  0  0  0  0  0  0  0  0
    0.3798   -1.4435   -1.3835 H   0  0  0  0  0  0  0  0  0  0  0  0
    3.0443    1.8253   -0.4856 H   0  0  0  0  0  0  0  0  0  0  0  0
    4.4617    0.3057    0.8280 H   0  0  0  0  0  0  0  0  0  0  0  0
   -4.0232   -2.4960   -1.1718 H   0  0  0  0  0  0  0  0  0  0  0  0
   -3.8641   -2.1434    2.0325 H   0  0  0  0  0  0  0  0  0  0  0  0
    0.8891   -3.3740   -0.5089 H   0  0  0  0  0  0  0  0  0  0  0  0
    3.6286   -3.1464    1.1843 H   0  0  0  0  0  0  0  0  0  0  0  0
  1 16  1  0  0  0  0
  1 38  1  0  0  0  0
  2 17  1  0  0  0  0
  2 39  1  0  0  0  0
  3 20  1  0  0  0  0
  3 40  1  0  0  0  0
  4 22  1  0  0  0  0
  4 41  1  0  0  0  0
  5  6  1  0  0  0  0
  5  8  1  0  0  0  0
  5 12  1  0  0  0  0
  6  7  1  0  0  0  0
  6 11  1  0  0  0  0
  6 23  1  0  0  0  0
  7 10  1  0  0  0  0
  7 13  2  0  0  0  0
  8  9  1  0  0  0  0
  8 24  1  0  0  0  0
  8 25  1  0  0  0  0
  9 10  1  0  0  0  0
  9 26  1  0  0  0  0
  9 27  1  0  0  0  0
 10 15  2  0  0  0  0
 11 14  1  0  0  0  0
 11 28  1  0  0  0  0
 11 29  1  0  0  0  0
 12 30  1  0  0  0  0
 12 31  1  0  0  0  0
 12 32  1  0  0  0  0
 13 16  1  0  0  0  0
 13 33  1  0  0  0  0
 14 18  2  0  0  0  0
 14 19  1  0  0  0  0
 15 17  1  0  0  0  0
 15 34  1  0  0  0  0
 16 17  2  0  0  0  0
 18 20  1  0  0  0  0
 18 35  1  0  0  0  0
 19 21  2  0  0  0  0
 19 36  1  0  0  0  0
 20 22  2  0  0  0  0
 21 22  1  0  0  0  0
 21 37  1  0  0  0  0
M  ISO  1  23   2
M  END
> <PUBCHEM_COMPOUND_CID>
12305593

> <PUBCHEM_CONFORMER_RMSD>
0.6

> <PUBCHEM_CONFORMER_DIVERSEORDER>
3
8
12
21
15
9
4
19
11
10
14
6
18
1
17
5
22
7
13
2
16
23
20

> <PUBCHEM_MMFF94_PARTIAL_CHARGES>
31
1 -0.53
10 -0.14
11 0.14
12 0.27
13 -0.15
14 -0.14
15 -0.15
16 0.08
17 0.08
18 -0.15
19 -0.15
2 -0.53
20 0.08
21 -0.15
22 0.08
3 -0.53
33 0.15
34 0.15
35 0.15
36 0.15
37 0.15
38 0.45
39 0.45
4 -0.53
40 0.45
41 0.45
5 -0.81
6 0.41
7 -0.14
8 0.27
9 0.14

> <PUBCHEM_EFFECTIVE_ROTOR_COUNT>
2.8

> <PUBCHEM_PHARMACOPHORE_FEATURES>
8
1 1 donor
1 2 donor
1 3 donor
1 4 donor
1 5 cation
6 14 18 19 20 21 22 rings
6 5 6 7 8 9 10 rings
6 7 10 13 15 16 17 rings

> <PUBCHEM_HEAVY_ATOM_COUNT>
22

> <PUBCHEM_ATOM_DEF_STEREO_COUNT>
1

> <PUBCHEM_ATOM_UDEF_STEREO_COUNT>
0

> <PUBCHEM_BOND_DEF_STEREO_COUNT>
0

> <PUBCHEM_BOND_UDEF_STEREO_COUNT>
0

> <PUBCHEM_ISOTOPIC_ATOM_COUNT>
1

> <PUBCHEM_COMPONENT_COUNT>
1

> <PUBCHEM_CACTVS_TAUTO_COUNT>
324

> <PUBCHEM_CONFORMER_ID>
00BBC4B900000003

> <PUBCHEM_MMFF94_ENERGY>
61.3723

> <PUBCHEM_FEATURE_SELFOVERLAP>
40.627

> <PUBCHEM_SHAPE_FINGERPRINT>
10064457 181 17402069175693904407
11221954 11 11849071826522468611
11578080 2 18129080351573249993
11582403 64 15805733280379766893
12422481 6 17547324128216891393
12506688 2 18261964053818735603
12553582 1 18340217352882081191
12633257 1 17702950206101287570
12788726 201 17974832983094197577
13004483 165 18267856199282457665
13140716 1 18336548192454249658
13583140 156 17687793619307962929
13911987 19 16593131984239747228
14178342 30 18049442535452479834
14223421 5 18128814140978094822
14251757 17 17608906730541851759
14787075 74 17842276157977059652
15375462 189 18270125750196120271
16945 1 18264772245091653669
18981168 100 14907326439686566476
20600515 1 15190724616684507196
21421861 104 18125748865752892889
21731228 192 17260475768765185448
21731516 1 18201166524074768525
23388829 49 18272098239496431165
23419403 2 17392428464415763188
23526113 38 18042100172721303381
23728640 28 17540530219539201280
392239 28 17986660670724856458
4340502 62 17404886116147630715
5262128 65 16153995775858053837
81228 2 18054519010391365157

> <PUBCHEM_SHAPE_MULTIPOLES>
424.29
5.69
3.74
1.65
0.62
1.9
0.08
-5.5
1.01
0.84
0.41
-0.76
0.23
-0.98

> <PUBCHEM_SHAPE_SELFOVERLAP>
924.635

> <PUBCHEM_SHAPE_VOLUME>
230.9

> <PUBCHEM_COORDINATE_TYPE>
2
5
10

$$$$
