20843359
  -OEChem-03052615063D

 49 50  0     1  0  0  0  0  0999 V2000
    0.9030   -0.8402    2.2961 S   0  0  0  0  0  0  0  0  0  0  0  0
   -0.2525   -3.6873   -0.7491 S   0  0  0  0  0  0  0  0  0  0  0  0
    1.5657   -0.1513   -0.1997 O   0  0  0  0  0  0  0  0  0  0  0  0
    5.2115    1.4933    0.7446 O   0  0  0  0  0  0  0  0  0  0  0  0
    4.0013    2.0079   -1.8727 O   0  0  0  0  0  0  0  0  0  0  0  0
    3.1884    1.2384    2.7850 O   0  0  0  0  0  0  0  0  0  0  0  0
    0.3971   -0.0442   -2.6824 O   0  0  0  0  0  0  0  0  0  0  0  0
    0.1003   -2.5873    0.4039 O   0  0  0  0  0  0  0  0  0  0  0  0
   -3.1640    3.1676   -1.2902 O   0  0  0  0  0  0  0  0  0  0  0  0
    1.2026   -4.3483   -1.0705 O   0  0  0  0  0  0  0  0  0  0  0  0
   -1.0828   -4.7192   -0.1566 O   0  0  0  0  0  0  0  0  0  0  0  0
   -0.6870   -2.9806   -1.9396 O   0  0  0  0  0  0  0  0  0  0  0  0
   -1.0110   -1.8034    0.7211 N   0  0  0  0  0  0  0  0  0  0  0  0
    3.5529    1.0218   -0.9470 C   0  0  1  0  0  0  0  0  0  0  0  0
    3.8074    1.5070    0.4806 C   0  0  1  0  0  0  0  0  0  0  0  0
    2.0598    0.7698   -1.1727 C   0  0  1  0  0  0  0  0  0  0  0  0
    3.1248    0.6006    1.5099 C   0  0  2  0  0  0  0  0  0  0  0  0
    1.6610    0.3514    1.1329 C   0  0  2  0  0  0  0  0  0  0  0  0
    1.7903    0.1708   -2.5494 C   0  0  0  0  0  0  0  0  0  0  0  0
   -0.7280   -0.9309    1.6370 C   0  0  0  0  0  0  0  0  0  0  0  0
   -1.6892    0.0848    2.2251 C   0  0  0  0  0  0  0  0  0  0  0  0
   -2.7210    0.5488    1.2255 C   0  0  0  0  0  0  0  0  0  0  0  0
   -2.4627    1.6578    0.4200 C   0  0  0  0  0  0  0  0  0  0  0  0
   -3.9327   -0.1319    1.1075 C   0  0  0  0  0  0  0  0  0  0  0  0
   -3.4160    2.0861   -0.5037 C   0  0  0  0  0  0  0  0  0  0  0  0
   -4.8861    0.2962    0.1838 C   0  0  0  0  0  0  0  0  0  0  0  0
   -4.6278    1.4053   -0.6217 C   0  0  0  0  0  0  0  0  0  0  0  0
   -1.9053    3.8170   -1.1177 C   0  0  0  0  0  0  0  0  0  0  0  0
    3.4850    2.5481    0.6013 H   0  0  0  0  0  0  0  0  0  0  0  0
    4.1302    0.1084   -1.1342 H   0  0  0  0  0  0  0  0  0  0  0  0
    1.4853    1.7027   -1.0909 H   0  0  0  0  0  0  0  0  0  0  0  0
    3.6776   -0.3446    1.5823 H   0  0  0  0  0  0  0  0  0  0  0  0
    1.0802    1.2786    1.2126 H   0  0  0  0  0  0  0  0  0  0  0  0
    2.2879   -0.7989   -2.6564 H   0  0  0  0  0  0  0  0  0  0  0  0
    2.1210    0.8383   -3.3506 H   0  0  0  0  0  0  0  0  0  0  0  0
    5.5336    0.5839    0.6220 H   0  0  0  0  0  0  0  0  0  0  0  0
    3.4897    2.8203   -1.7181 H   0  0  0  0  0  0  0  0  0  0  0  0
    2.6857    2.0690    2.7313 H   0  0  0  0  0  0  0  0  0  0  0  0
    0.2492   -0.4343   -3.5607 H   0  0  0  0  0  0  0  0  0  0  0  0
   -1.1524    0.9536    2.6247 H   0  0  0  0  0  0  0  0  0  0  0  0
   -2.1882   -0.3861    3.0817 H   0  0  0  0  0  0  0  0  0  0  0  0
   -1.5028    2.1464    0.5516 H   0  0  0  0  0  0  0  0  0  0  0  0
   -4.1449   -0.9984    1.7281 H   0  0  0  0  0  0  0  0  0  0  0  0
   -5.8293   -0.2342    0.0913 H   0  0  0  0  0  0  0  0  0  0  0  0
   -5.3743    1.7339   -1.3397 H   0  0  0  0  0  0  0  0  0  0  0  0
   -1.8053    4.2411   -0.1127 H   0  0  0  0  0  0  0  0  0  0  0  0
   -1.0717    3.1540   -1.3738 H   0  0  0  0  0  0  0  0  0  0  0  0
   -1.8746    4.6546   -1.8222 H   0  0  0  0  0  0  0  0  0  0  0  0
    1.2035   -5.0503   -1.7629 H   0  0  0  0  0  0  0  0  0  0  0  0
  1 18  1  0  0  0  0
  1 20  1  0  0  0  0
  2  8  1  0  0  0  0
  2 10  1  0  0  0  0
  2 11  2  0  0  0  0
  2 12  2  0  0  0  0
  3 16  1  0  0  0  0
  3 18  1  0  0  0  0
  4 15  1  0  0  0  0
  4 36  1  0  0  0  0
  5 14  1  0  0  0  0
  5 37  1  0  0  0  0
  6 17  1  0  0  0  0
  6 38  1  0  0  0  0
  7 19  1  0  0  0  0
  7 39  1  0  0  0  0
  8 13  1  0  0  0  0
  9 25  1  0  0  0  0
  9 28  1  0  0  0  0
 10 49  1  0  0  0  0
 13 20  2  0  0  0  0
 14 15  1  0  0  0  0
 14 16  1  0  0  0  0
 14 30  1  0  0  0  0
 15 17  1  0  0  0  0
 15 29  1  0  0  0  0
 16 19  1  0  0  0  0
 16 31  1  0  0  0  0
 17 18  1  0  0  0  0
 17 32  1  0  0  0  0
 18 33  1  0  0  0  0
 19 34  1  0  0  0  0
 19 35  1  0  0  0  0
 20 21  1  0  0  0  0
 21 22  1  0  0  0  0
 21 40  1  0  0  0  0
 21 41  1  0  0  0  0
 22 23  2  0  0  0  0
 22 24  1  0  0  0  0
 23 25  1  0  0  0  0
 23 42  1  0  0  0  0
 24 26  2  0  0  0  0
 24 43  1  0  0  0  0
 25 27  2  0  0  0  0
 26 27  1  0  0  0  0
 26 44  1  0  0  0  0
 27 45  1  0  0  0  0
 28 46  1  0  0  0  0
 28 47  1  0  0  0  0
 28 48  1  0  0  0  0
M  END
> <PUBCHEM_COMPOUND_CID>
20843359

> <PUBCHEM_CONFORMER_RMSD>
1

> <PUBCHEM_CONFORMER_DIVERSEORDER>
1
89
52
56
92
45
23
99
21
31
28
49
63
95
97
79
60
51
96
88
78
87
74
50
75
61
84
100
47
53
48
94
2
64
8
81
37
59
35
72
86
58
69
54
17
77
91
76
10
26
62
57
29
71
68
42
83
44
93
46
101
24
67
73
65
15
39
98
85
27
41
80
18
66
70
4
90
38
11
16
32
36
14
55
43
19
22
5
12
40
25
82
34
13
33
3
30
7
6
20
9

> <PUBCHEM_MMFF94_PARTIAL_CHARGES>
37
1 -0.37
10 -0.68
11 -0.65
12 -0.65
13 -0.51
14 0.28
15 0.28
16 0.28
17 0.28
18 0.51
19 0.28
2 1.67
20 0.53
21 0.2
22 -0.14
23 -0.15
24 -0.15
25 0.08
26 -0.15
27 -0.15
28 0.28
3 -0.56
36 0.4
37 0.4
38 0.4
39 0.4
4 -0.68
42 0.15
43 0.15
44 0.15
45 0.15
49 0.5
5 -0.68
6 -0.68
7 -0.68
8 -0.12
9 -0.36

> <PUBCHEM_EFFECTIVE_ROTOR_COUNT>
9.2

> <PUBCHEM_PHARMACOPHORE_FEATURES>
17
1 10 acceptor
1 11 acceptor
1 12 acceptor
1 13 acceptor
1 3 acceptor
1 4 acceptor
1 4 donor
1 5 acceptor
1 5 donor
1 6 acceptor
1 6 donor
1 7 acceptor
1 7 donor
1 9 acceptor
4 2 10 11 12 anion
6 22 23 24 25 26 27 rings
6 3 14 15 16 17 18 rings

> <PUBCHEM_HEAVY_ATOM_COUNT>
28

> <PUBCHEM_ATOM_DEF_STEREO_COUNT>
5

> <PUBCHEM_ATOM_UDEF_STEREO_COUNT>
0

> <PUBCHEM_BOND_DEF_STEREO_COUNT>
1

> <PUBCHEM_BOND_UDEF_STEREO_COUNT>
0

> <PUBCHEM_ISOTOPIC_ATOM_COUNT>
0

> <PUBCHEM_COMPONENT_COUNT>
1

> <PUBCHEM_CACTVS_TAUTO_COUNT>
1

> <PUBCHEM_CONFORMER_ID>
013E0B5F00000001

> <PUBCHEM_MMFF94_ENERGY>
77.6977

> <PUBCHEM_FEATURE_SELFOVERLAP>
86.358

> <PUBCHEM_SHAPE_FINGERPRINT>
10764073 3 17030477779394615722
11582403 64 16555609917196359226
12160290 23 18125729129861658130
12788726 201 17756714396085832634
13149001 5 17630879606860312913
133893 2 17981062828973082739
13583140 156 17773308140553090664
13681431 1 17480307764347055171
14251757 17 16524181300396967447
14251764 3 18343578542680024232
17859628 37 16805883966277074649
20511986 3 17313936540932486516
20600515 1 17334763679190708723
20715895 44 16807273719685994021
20739085 24 15357982304591424964
22749437 52 17458345183039062649
23114952 82 18123750847135345177
23419403 2 17468166987271008330
23559900 14 17901950738862216677
23598288 3 17824553099609550155
238 59 16343713139955388340
26353 1 17189532508339893279
35225 105 18261389004842409909
44802255 64 18047506523436164382
46194498 28 18049161069265734911
469060 322 18195253437089431079
6669772 16 17845923087780494874

> <PUBCHEM_SHAPE_MULTIPOLES>
520.25
8.14
4.62
2.59
1.09
5.38
0.01
-7.63
0.49
1.03
-2.84
-1.65
-0.02
1.01

> <PUBCHEM_SHAPE_SELFOVERLAP>
1048.005

> <PUBCHEM_SHAPE_VOLUME>
305.5

> <PUBCHEM_COORDINATE_TYPE>
2
5
10

$$$$
