21721966
  -OEChem-03052615083D

 56 59  0     1  0  0  0  0  0999 V2000
    2.9445    0.6028   -0.5306 O   0  0  0  0  0  0  0  0  0  0  0  0
    2.6121   -1.6598   -0.9934 O   0  0  0  0  0  0  0  0  0  0  0  0
    5.5983    2.4122    1.2291 O   0  0  0  0  0  0  0  0  0  0  0  0
    6.8943   -0.0339    0.3968 O   0  0  0  0  0  0  0  0  0  0  0  0
    4.9824   -2.2754    0.4246 O   0  0  0  0  0  0  0  0  0  0  0  0
    1.6223    2.9750   -0.1053 O   0  0  0  0  0  0  0  0  0  0  0  0
   -1.9351   -0.5192   -0.2108 O   0  0  0  0  0  0  0  0  0  0  0  0
   -0.4553   -5.1242    0.1023 O   0  0  0  0  0  0  0  0  0  0  0  0
    1.6070    5.1464   -0.8939 O   0  0  0  0  0  0  0  0  0  0  0  0
   -2.9423   -4.3990    0.5180 O   0  0  0  0  0  0  0  0  0  0  0  0
   -6.8479    3.4232    0.2927 O   0  0  0  0  0  0  0  0  0  0  0  0
    5.0441    1.4814    0.3029 C   0  0  1  0  0  0  0  0  0  0  0  0
    5.4968    0.0690    0.6736 C   0  0  1  0  0  0  0  0  0  0  0  0
    3.5176    1.5876    0.3314 C   0  0  1  0  0  0  0  0  0  0  0  0
    4.7389   -0.9847   -0.1341 C   0  0  2  0  0  0  0  0  0  0  0  0
    3.2322   -0.7280   -0.1078 C   0  0  1  0  0  0  0  0  0  0  0  0
    3.0375    2.9538   -0.1481 C   0  0  0  0  0  0  0  0  0  0  0  0
    1.3390   -2.0492   -0.6791 C   0  0  0  0  0  0  0  0  0  0  0  0
    0.3211   -1.0989   -0.5968 C   0  0  0  0  0  0  0  0  0  0  0  0
    1.0605   -3.3962   -0.4424 C   0  0  0  0  0  0  0  0  0  0  0  0
   -0.9768   -1.4985   -0.2774 C   0  0  0  0  0  0  0  0  0  0  0  0
   -1.2529   -2.8442   -0.0412 C   0  0  0  0  0  0  0  0  0  0  0  0
    1.0263    4.1410   -0.5078 C   0  0  0  0  0  0  0  0  0  0  0  0
   -0.2367   -3.7988   -0.1223 C   0  0  0  0  0  0  0  0  0  0  0  0
   -2.6297   -3.2376    0.2955 C   0  0  0  0  0  0  0  0  0  0  0  0
   -3.2357   -0.8877    0.0980 C   0  0  0  0  0  0  0  0  0  0  0  0
   -0.4642    4.0180   -0.4104 C   0  0  0  0  0  0  0  0  0  0  0  0
   -3.6243   -2.1473    0.3524 C   0  0  0  0  0  0  0  0  0  0  0  0
   -4.1836    0.2435    0.1491 C   0  0  0  0  0  0  0  0  0  0  0  0
   -5.2956    0.2604   -0.6931 C   0  0  0  0  0  0  0  0  0  0  0  0
   -3.9672    1.2952    1.0395 C   0  0  0  0  0  0  0  0  0  0  0  0
   -6.1909    1.3289   -0.6448 C   0  0  0  0  0  0  0  0  0  0  0  0
   -4.8625    2.3636    1.0878 C   0  0  0  0  0  0  0  0  0  0  0  0
   -5.9743    2.3805    0.2456 C   0  0  0  0  0  0  0  0  0  0  0  0
    5.4272    1.7420   -0.6913 H   0  0  0  0  0  0  0  0  0  0  0  0
    5.3851   -0.1072    1.7498 H   0  0  0  0  0  0  0  0  0  0  0  0
    3.1299    1.4297    1.3471 H   0  0  0  0  0  0  0  0  0  0  0  0
    5.1049   -1.0132   -1.1672 H   0  0  0  0  0  0  0  0  0  0  0  0
    2.8468   -0.8824    0.9111 H   0  0  0  0  0  0  0  0  0  0  0  0
    3.3592    3.1215   -1.1833 H   0  0  0  0  0  0  0  0  0  0  0  0
    3.4367    3.7497    0.4906 H   0  0  0  0  0  0  0  0  0  0  0  0
    5.2535    2.1980    2.1129 H   0  0  0  0  0  0  0  0  0  0  0  0
    7.0245    0.1008   -0.5574 H   0  0  0  0  0  0  0  0  0  0  0  0
    4.6603   -2.2726    1.3421 H   0  0  0  0  0  0  0  0  0  0  0  0
    0.5182   -0.0495   -0.7946 H   0  0  0  0  0  0  0  0  0  0  0  0
    1.8586   -4.1319   -0.5071 H   0  0  0  0  0  0  0  0  0  0  0  0
   -0.8109    3.2009   -1.0483 H   0  0  0  0  0  0  0  0  0  0  0  0
   -0.9288    4.9475   -0.7518 H   0  0  0  0  0  0  0  0  0  0  0  0
   -0.7540    3.8434    0.6287 H   0  0  0  0  0  0  0  0  0  0  0  0
   -4.6459   -2.4097    0.6037 H   0  0  0  0  0  0  0  0  0  0  0  0
   -1.3877   -5.2842    0.3138 H   0  0  0  0  0  0  0  0  0  0  0  0
   -5.4789   -0.5475   -1.3974 H   0  0  0  0  0  0  0  0  0  0  0  0
   -3.1063    1.2968    1.7038 H   0  0  0  0  0  0  0  0  0  0  0  0
   -7.0546    1.3371   -1.3041 H   0  0  0  0  0  0  0  0  0  0  0  0
   -4.6825    3.1768    1.7859 H   0  0  0  0  0  0  0  0  0  0  0  0
   -6.5440    4.0587    0.9634 H   0  0  0  0  0  0  0  0  0  0  0  0
  1 14  1  0  0  0  0
  1 16  1  0  0  0  0
  2 16  1  0  0  0  0
  2 18  1  0  0  0  0
  3 12  1  0  0  0  0
  3 42  1  0  0  0  0
  4 13  1  0  0  0  0
  4 43  1  0  0  0  0
  5 15  1  0  0  0  0
  5 44  1  0  0  0  0
  6 17  1  0  0  0  0
  6 23  1  0  0  0  0
  7 21  1  0  0  0  0
  7 26  1  0  0  0  0
  8 24  1  0  0  0  0
  8 51  1  0  0  0  0
  9 23  2  0  0  0  0
 10 25  2  0  0  0  0
 11 34  1  0  0  0  0
 11 56  1  0  0  0  0
 12 13  1  0  0  0  0
 12 14  1  0  0  0  0
 12 35  1  0  0  0  0
 13 15  1  0  0  0  0
 13 36  1  0  0  0  0
 14 17  1  0  0  0  0
 14 37  1  0  0  0  0
 15 16  1  0  0  0  0
 15 38  1  0  0  0  0
 16 39  1  0  0  0  0
 17 40  1  0  0  0  0
 17 41  1  0  0  0  0
 18 19  1  0  0  0  0
 18 20  2  0  0  0  0
 19 21  2  0  0  0  0
 19 45  1  0  0  0  0
 20 24  1  0  0  0  0
 20 46  1  0  0  0  0
 21 22  1  0  0  0  0
 22 24  2  0  0  0  0
 22 25  1  0  0  0  0
 23 27  1  0  0  0  0
 25 28  1  0  0  0  0
 26 28  2  0  0  0  0
 26 29  1  0  0  0  0
 27 47  1  0  0  0  0
 27 48  1  0  0  0  0
 27 49  1  0  0  0  0
 28 50  1  0  0  0  0
 29 30  2  0  0  0  0
 29 31  1  0  0  0  0
 30 32  1  0  0  0  0
 30 52  1  0  0  0  0
 31 33  2  0  0  0  0
 31 53  1  0  0  0  0
 32 34  2  0  0  0  0
 32 54  1  0  0  0  0
 33 34  1  0  0  0  0
 33 55  1  0  0  0  0
M  END
> <PUBCHEM_COMPOUND_CID>
21721966

> <PUBCHEM_CONFORMER_RMSD>
1

> <PUBCHEM_CONFORMER_DIVERSEORDER>
1
78
44
7
102
52
37
108
3
123
110
27
125
116
66
11
111
59
30
29
124
142
57
38
87
58
21
101
43
17
84
96
14
100
25
42
19
16
75
70
71
64
23
31
24
32
35
26
51
10
113
61
117
136
41
13
128
105
69
129
39
18
126
133
34
8
22
119
86
28
93
12
104
5
55
9
47
62
92
127
135
106
114
4
20
33
15
6
139
82
97
90
65
54
103
68
141
79
109
134
53
88
107
73
118
81
120
46
48
2
121
67
94
112
36
40
95
74
83
138
131
85
56
50
99
89
98
80
76
49
45
140
63
122
137
115
130
72
132
91
60
77

> <PUBCHEM_MMFF94_PARTIAL_CHARGES>
46
1 -0.56
10 -0.57
11 -0.53
12 0.28
13 0.28
14 0.28
15 0.28
16 0.56
17 0.28
18 0.08
19 -0.15
2 -0.36
20 -0.15
21 0.08
22 0.09
23 0.66
24 0.08
25 0.47
26 0.05
27 0.06
28 -0.14
29 0.03
3 -0.68
30 -0.15
31 -0.15
32 -0.15
33 -0.15
34 0.08
4 -0.68
42 0.4
43 0.4
44 0.4
45 0.15
46 0.15
5 -0.68
50 0.15
51 0.45
52 0.15
53 0.15
54 0.15
55 0.15
56 0.45
6 -0.43
7 -0.16
8 -0.53
9 -0.57

> <PUBCHEM_EFFECTIVE_ROTOR_COUNT>
7.2

> <PUBCHEM_PHARMACOPHORE_FEATURES>
17
1 1 acceptor
1 10 acceptor
1 11 donor
1 2 acceptor
1 3 acceptor
1 3 donor
1 4 acceptor
1 4 donor
1 5 acceptor
1 5 donor
1 7 acceptor
1 8 donor
1 9 acceptor
6 1 12 13 14 15 16 rings
6 18 19 20 21 22 24 rings
6 29 30 31 32 33 34 rings
6 7 21 22 25 26 28 rings

> <PUBCHEM_HEAVY_ATOM_COUNT>
34

> <PUBCHEM_ATOM_DEF_STEREO_COUNT>
5

> <PUBCHEM_ATOM_UDEF_STEREO_COUNT>
0

> <PUBCHEM_BOND_DEF_STEREO_COUNT>
0

> <PUBCHEM_BOND_UDEF_STEREO_COUNT>
0

> <PUBCHEM_ISOTOPIC_ATOM_COUNT>
0

> <PUBCHEM_COMPONENT_COUNT>
1

> <PUBCHEM_CACTVS_TAUTO_COUNT>
21

> <PUBCHEM_CONFORMER_ID>
014B736E00000001

> <PUBCHEM_MMFF94_ENERGY>
105.8061

> <PUBCHEM_FEATURE_SELFOVERLAP>
86.363

> <PUBCHEM_SHAPE_FINGERPRINT>
10006869 2 18121490263480803047
10439779 11 18268701878559733944
10675989 125 18050005489785121443
11763389 116 18191860133262191325
12107183 9 18336254670717396666
12677640 9 18340769364281539877
12925494 130 18411133658398422755
12978246 48 18194970870483775529
13402501 40 18410008797557570261
13560911 23 18189883400623889034
1361 2 18338801109355571305
14020679 6 17895198843412932947
14117953 113 18339082592679539132
14251764 38 18266463294185922639
14466204 15 18410011013728481123
15238133 3 18334864943885376974
15320467 1 18338518525929229277
16087824 20 18337673006093803212
20715895 44 18341332197447950563
21033648 29 17845357994822944682
21133410 38 17842285761872477113
21298829 104 18271810052034911609
22311459 1 17905610999422666991
23522609 53 17677625318863030524
23559900 14 18200603505830210534
2838139 119 18272365373740936007
354706 109 18198036227403430681
4144715 1 18264214771775922930
437795 96 18335136454190483013
5104073 3 18260264153134843874
550186 83 17821996606458521408
6371009 1 18267575987268816343
9961470 85 18270109261843889457
9981440 41 18409453596400540483

> <PUBCHEM_SHAPE_MULTIPOLES>
635.14
14.76
6.97
0.87
1.6
0.38
-0.05
10.48
-2.95
1.65
0.49
0.06
0.26
0.08

> <PUBCHEM_SHAPE_SELFOVERLAP>
1382.532

> <PUBCHEM_SHAPE_VOLUME>
342

> <PUBCHEM_COORDINATE_TYPE>
2
5
10

$$$$
