21771753
  -OEChem-03052615083D

 81 83  0     1  0  0  0  0  0999 V2000
   -1.0678   -1.3131    1.0454 O   0  0  0  0  0  0  0  0  0  0  0  0
    1.2851   -2.1897   -0.5654 O   0  0  0  0  0  0  0  0  0  0  0  0
   -3.8475   -1.6468    0.6501 O   0  0  0  0  0  0  0  0  0  0  0  0
    1.8382    3.1957   -1.6737 O   0  0  0  0  0  0  0  0  0  0  0  0
    1.0712    2.8232    2.9969 O   0  0  0  0  0  0  0  0  0  0  0  0
    3.0458   -1.8886   -2.0175 O   0  0  0  0  0  0  0  0  0  0  0  0
   -5.0987   -2.5962   -1.0440 O   0  0  0  0  0  0  0  0  0  0  0  0
    1.4173    5.4351   -1.2932 O   0  0  0  0  0  0  0  0  0  0  0  0
   -1.6049   -1.4828   -0.2708 C   0  0  1  0  0  0  0  0  0  0  0  0
   -0.6268   -0.8613   -1.3162 C   0  0  2  0  0  0  0  0  0  0  0  0
   -0.5884   -3.2017   -1.7428 C   0  0  1  0  0  0  0  0  0  0  0  0
   -1.5710   -3.0122   -0.5753 C   0  0  0  0  0  0  0  0  0  0  0  0
    0.3576   -2.0052   -1.6281 C   0  0  2  0  0  0  0  0  0  0  0  0
   -3.0633   -0.9420   -0.3218 C   0  0  2  0  0  0  0  0  0  0  0  0
   -3.3184    0.5883   -0.1956 C   0  0  2  0  0  0  0  0  0  0  0  0
    0.0863    0.3978   -0.8809 C   0  0  0  0  0  0  0  0  0  0  0  0
    0.0858   -4.5652   -1.7238 C   0  0  0  0  0  0  0  0  0  0  0  0
    0.0820    1.6117   -1.4637 C   0  0  0  0  0  0  0  0  0  0  0  0
   -2.6243    1.2491    0.9707 C   0  0  0  0  0  0  0  0  0  0  0  0
   -4.8200    0.8949   -0.1200 C   0  0  0  0  0  0  0  0  0  0  0  0
    0.7242    2.8424   -0.8374 C   0  0  1  0  0  0  0  0  0  0  0  0
   -1.1058    3.0717    1.9291 C   0  0  0  0  0  0  0  0  0  0  0  0
    1.2373    2.8401    0.6174 C   0  0  0  0  0  0  0  0  0  0  0  0
    0.3313    2.4653    1.8147 C   0  0  1  0  0  0  0  0  0  0  0  0
   -1.9976    2.4354    0.8727 C   0  0  0  0  0  0  0  0  0  0  0  0
    2.6017   -2.1056   -0.9006 C   0  0  0  0  0  0  0  0  0  0  0  0
   -0.6033    1.9062   -2.7782 C   0  0  0  0  0  0  0  0  0  0  0  0
   -4.8306   -2.4370    0.1392 C   0  0  0  0  0  0  0  0  0  0  0  0
   -1.0913    4.6027    1.7466 C   0  0  0  0  0  0  0  0  0  0  0  0
   -1.6729    2.8061    3.3490 C   0  0  0  0  0  0  0  0  0  0  0  0
    3.4619   -2.3170    0.2910 C   0  0  0  0  0  0  0  0  0  0  0  0
   -5.5620   -3.1068    1.2629 C   0  0  0  0  0  0  0  0  0  0  0  0
    2.0623    4.5314   -1.8075 C   0  0  0  0  0  0  0  0  0  0  0  0
    4.7274   -2.8852    0.1456 C   0  0  0  0  0  0  0  0  0  0  0  0
    3.0048   -1.9468    1.5558 C   0  0  0  0  0  0  0  0  0  0  0  0
    3.2465    4.7482   -2.7001 C   0  0  0  0  0  0  0  0  0  0  0  0
    5.5358   -3.0837    1.2649 C   0  0  0  0  0  0  0  0  0  0  0  0
    3.8132   -2.1451    2.6752 C   0  0  0  0  0  0  0  0  0  0  0  0
    5.0787   -2.7136    2.5295 C   0  0  0  0  0  0  0  0  0  0  0  0
   -1.2072   -0.6866   -2.2283 H   0  0  0  0  0  0  0  0  0  0  0  0
   -1.1527   -3.1104   -2.6815 H   0  0  0  0  0  0  0  0  0  0  0  0
   -2.5402   -3.4167   -0.8789 H   0  0  0  0  0  0  0  0  0  0  0  0
   -1.2455   -3.5776    0.3067 H   0  0  0  0  0  0  0  0  0  0  0  0
    0.8461   -1.8258   -2.5933 H   0  0  0  0  0  0  0  0  0  0  0  0
   -3.4132   -1.1795   -1.3366 H   0  0  0  0  0  0  0  0  0  0  0  0
   -2.9469    1.0447   -1.1220 H   0  0  0  0  0  0  0  0  0  0  0  0
    0.6544    0.2872    0.0380 H   0  0  0  0  0  0  0  0  0  0  0  0
    0.6249   -4.7410   -0.7871 H   0  0  0  0  0  0  0  0  0  0  0  0
   -0.6572   -5.3618   -1.8351 H   0  0  0  0  0  0  0  0  0  0  0  0
    0.8015   -4.6513   -2.5478 H   0  0  0  0  0  0  0  0  0  0  0  0
   -1.6908   -1.7185    1.6727 H   0  0  0  0  0  0  0  0  0  0  0  0
   -2.5906    0.6893    1.9000 H   0  0  0  0  0  0  0  0  0  0  0  0
   -5.3536    0.4358   -0.9591 H   0  0  0  0  0  0  0  0  0  0  0  0
   -4.9985    1.9752   -0.1714 H   0  0  0  0  0  0  0  0  0  0  0  0
   -5.2677    0.5328    0.8121 H   0  0  0  0  0  0  0  0  0  0  0  0
   -0.0357    3.6292   -0.9095 H   0  0  0  0  0  0  0  0  0  0  0  0
    1.6583    3.8341    0.8282 H   0  0  0  0  0  0  0  0  0  0  0  0
    2.1284    2.1953    0.6634 H   0  0  0  0  0  0  0  0  0  0  0  0
    0.2425    1.3740    1.8619 H   0  0  0  0  0  0  0  0  0  0  0  0
   -2.0697    2.9633   -0.0756 H   0  0  0  0  0  0  0  0  0  0  0  0
    0.1000    2.3729   -3.4763 H   0  0  0  0  0  0  0  0  0  0  0  0
   -0.9955    1.0227   -3.2836 H   0  0  0  0  0  0  0  0  0  0  0  0
   -1.4383    2.5970   -2.6223 H   0  0  0  0  0  0  0  0  0  0  0  0
   -0.4311    5.0833    2.4777 H   0  0  0  0  0  0  0  0  0  0  0  0
   -0.7496    4.9034    0.7524 H   0  0  0  0  0  0  0  0  0  0  0  0
   -2.0948    5.0245    1.8808 H   0  0  0  0  0  0  0  0  0  0  0  0
   -2.7358    3.0699    3.4090 H   0  0  0  0  0  0  0  0  0  0  0  0
   -1.1520    3.4013    4.1082 H   0  0  0  0  0  0  0  0  0  0  0  0
   -1.5695    1.7544    3.6393 H   0  0  0  0  0  0  0  0  0  0  0  0
    1.9147    2.3398    2.9735 H   0  0  0  0  0  0  0  0  0  0  0  0
   -4.8717   -3.7347    1.8320 H   0  0  0  0  0  0  0  0  0  0  0  0
   -6.3532   -3.7413    0.8533 H   0  0  0  0  0  0  0  0  0  0  0  0
   -6.0196   -2.3531    1.9086 H   0  0  0  0  0  0  0  0  0  0  0  0
    5.0969   -3.1816   -0.8326 H   0  0  0  0  0  0  0  0  0  0  0  0
    2.0287   -1.4903    1.6971 H   0  0  0  0  0  0  0  0  0  0  0  0
    3.0481    4.3259   -3.6884 H   0  0  0  0  0  0  0  0  0  0  0  0
    3.4260    5.8215   -2.8099 H   0  0  0  0  0  0  0  0  0  0  0  0
    4.1342    4.2906   -2.2563 H   0  0  0  0  0  0  0  0  0  0  0  0
    6.5209   -3.5268    1.1518 H   0  0  0  0  0  0  0  0  0  0  0  0
    3.4588   -1.8542    3.6597 H   0  0  0  0  0  0  0  0  0  0  0  0
    5.7083   -2.8674    3.4010 H   0  0  0  0  0  0  0  0  0  0  0  0
  1  9  1  0  0  0  0
  1 51  1  0  0  0  0
  2 13  1  0  0  0  0
  2 26  1  0  0  0  0
  3 14  1  0  0  0  0
  3 28  1  0  0  0  0
  4 21  1  0  0  0  0
  4 33  1  0  0  0  0
  5 24  1  0  0  0  0
  5 70  1  0  0  0  0
  6 26  2  0  0  0  0
  7 28  2  0  0  0  0
  8 33  2  0  0  0  0
  9 10  1  0  0  0  0
  9 12  1  0  0  0  0
  9 14  1  0  0  0  0
 10 13  1  0  0  0  0
 10 16  1  0  0  0  0
 10 40  1  0  0  0  0
 11 12  1  0  0  0  0
 11 13  1  0  0  0  0
 11 17  1  0  0  0  0
 11 41  1  0  0  0  0
 12 42  1  0  0  0  0
 12 43  1  0  0  0  0
 13 44  1  0  0  0  0
 14 15  1  0  0  0  0
 14 45  1  0  0  0  0
 15 19  1  0  0  0  0
 15 20  1  0  0  0  0
 15 46  1  0  0  0  0
 16 18  2  0  0  0  0
 16 47  1  0  0  0  0
 17 48  1  0  0  0  0
 17 49  1  0  0  0  0
 17 50  1  0  0  0  0
 18 21  1  0  0  0  0
 18 27  1  0  0  0  0
 19 25  2  0  0  0  0
 19 52  1  0  0  0  0
 20 53  1  0  0  0  0
 20 54  1  0  0  0  0
 20 55  1  0  0  0  0
 21 23  1  0  0  0  0
 21 56  1  0  0  0  0
 22 24  1  0  0  0  0
 22 25  1  0  0  0  0
 22 29  1  0  0  0  0
 22 30  1  0  0  0  0
 23 24  1  0  0  0  0
 23 57  1  0  0  0  0
 23 58  1  0  0  0  0
 24 59  1  0  0  0  0
 25 60  1  0  0  0  0
 26 31  1  0  0  0  0
 27 61  1  0  0  0  0
 27 62  1  0  0  0  0
 27 63  1  0  0  0  0
 28 32  1  0  0  0  0
 29 64  1  0  0  0  0
 29 65  1  0  0  0  0
 29 66  1  0  0  0  0
 30 67  1  0  0  0  0
 30 68  1  0  0  0  0
 30 69  1  0  0  0  0
 31 34  2  0  0  0  0
 31 35  1  0  0  0  0
 32 71  1  0  0  0  0
 32 72  1  0  0  0  0
 32 73  1  0  0  0  0
 33 36  1  0  0  0  0
 34 37  1  0  0  0  0
 34 74  1  0  0  0  0
 35 38  2  0  0  0  0
 35 75  1  0  0  0  0
 36 76  1  0  0  0  0
 36 77  1  0  0  0  0
 36 78  1  0  0  0  0
 37 39  2  0  0  0  0
 37 79  1  0  0  0  0
 38 39  1  0  0  0  0
 38 80  1  0  0  0  0
 39 81  1  0  0  0  0
M  END
> <PUBCHEM_COMPOUND_CID>
21771753

> <PUBCHEM_CONFORMER_RMSD>
1

> <PUBCHEM_CONFORMER_DIVERSEORDER>
1
9
8
7
3
4
6
2
10
5

> <PUBCHEM_MMFF94_PARTIAL_CHARGES>
42
1 -0.68
10 0.14
13 0.28
14 0.28
15 0.14
16 -0.29
18 -0.28
19 -0.29
2 -0.43
21 0.42
22 0.14
24 0.28
25 -0.29
26 0.63
27 0.14
28 0.66
3 -0.43
31 0.09
32 0.06
33 0.66
34 -0.15
35 -0.15
36 0.06
37 -0.15
38 -0.15
39 -0.15
4 -0.43
47 0.15
5 -0.68
51 0.4
52 0.15
6 -0.57
60 0.15
7 -0.57
70 0.4
74 0.15
75 0.15
79 0.15
8 -0.57
80 0.15
81 0.15
9 0.28

> <PUBCHEM_EFFECTIVE_ROTOR_COUNT>
8.8

> <PUBCHEM_PHARMACOPHORE_FEATURES>
10
1 1 acceptor
1 1 donor
1 5 acceptor
1 5 donor
1 6 acceptor
1 7 acceptor
1 8 acceptor
3 22 29 30 hydrophobe
5 9 10 11 12 13 rings
6 31 34 35 37 38 39 rings

> <PUBCHEM_HEAVY_ATOM_COUNT>
39

> <PUBCHEM_ATOM_DEF_STEREO_COUNT>
8

> <PUBCHEM_ATOM_UDEF_STEREO_COUNT>
0

> <PUBCHEM_BOND_DEF_STEREO_COUNT>
2

> <PUBCHEM_BOND_UDEF_STEREO_COUNT>
0

> <PUBCHEM_ISOTOPIC_ATOM_COUNT>
0

> <PUBCHEM_COMPONENT_COUNT>
1

> <PUBCHEM_CACTVS_TAUTO_COUNT>
1

> <PUBCHEM_CONFORMER_ID>
014C35E900000001

> <PUBCHEM_MMFF94_ENERGY>
121.1284

> <PUBCHEM_FEATURE_SELFOVERLAP>
50.748

> <PUBCHEM_SHAPE_FINGERPRINT>
10256941 240 17108732169738466960
10930396 42 17907815649485531298
12156800 1 15766727860623628314
13140716 1 18271260352286979211
13636023 51 18042120028809170287
140371 6 18198356052617393215
14068700 675 18270953528244749029
15264996 154 18122337149955372226
15444296 8 16665656754507383304
18393751 57 18129361736186835762
19319366 153 17904486555640261788
20600515 1 18266739078177992143
20764821 26 18130520686224827523
21033648 29 17775001245988395139
21927370 108 18261684670839712778
469060 322 17975700489268314152
56638632 33 18264477550459313939
7288768 16 17337858336671623456

> <PUBCHEM_SHAPE_MULTIPOLES>
755.65
8.85
7.99
3.07
8.91
7.12
0.95
-10.47
5.78
-3.77
-3.48
1.38
2.76
-2.28

> <PUBCHEM_SHAPE_SELFOVERLAP>
1571.138

> <PUBCHEM_SHAPE_VOLUME>
427.1

> <PUBCHEM_COORDINATE_TYPE>
2
5
10

$$$$
