229016
  -OEChem-03052615053D

 28 30  0     0  0  0  0  0  0999 V2000
   -0.5082    0.8512    0.0812 O   0  0  0  0  0  0  0  0  0  0  0  0
   -2.2963   -2.7941   -0.2550 O   0  0  0  0  0  0  0  0  0  0  0  0
    5.8052    0.4998    0.0423 O   0  0  0  0  0  0  0  0  0  0  0  0
   -2.5526   -0.4549   -0.0379 C   0  0  0  0  0  0  0  0  0  0  0  0
    0.2329   -0.3143   -0.0404 C   0  0  0  0  0  0  0  0  0  0  0  0
   -1.8769    0.7589    0.0759 C   0  0  0  0  0  0  0  0  0  0  0  0
    1.6940   -0.1014   -0.0181 C   0  0  0  0  0  0  0  0  0  0  0  0
   -1.7696   -1.6945   -0.1569 C   0  0  0  0  0  0  0  0  0  0  0  0
   -0.3008   -1.5414   -0.1494 C   0  0  0  0  0  0  0  0  0  0  0  0
   -3.9490   -0.4890   -0.0370 C   0  0  0  0  0  0  0  0  0  0  0  0
   -2.5959    1.9487    0.1921 C   0  0  0  0  0  0  0  0  0  0  0  0
    2.5396   -1.0834    0.5038 C   0  0  0  0  0  0  0  0  0  0  0  0
    2.2376    1.0841   -0.5197 C   0  0  0  0  0  0  0  0  0  0  0  0
   -4.6655    0.7028    0.0787 C   0  0  0  0  0  0  0  0  0  0  0  0
   -3.9907    1.9190    0.1932 C   0  0  0  0  0  0  0  0  0  0  0  0
    3.9197   -0.8814    0.5242 C   0  0  0  0  0  0  0  0  0  0  0  0
    3.6176    1.2863   -0.4995 C   0  0  0  0  0  0  0  0  0  0  0  0
    4.4588    0.3034    0.0225 C   0  0  0  0  0  0  0  0  0  0  0  0
    0.2807   -2.4495   -0.2564 H   0  0  0  0  0  0  0  0  0  0  0  0
   -4.4914   -1.4261   -0.1247 H   0  0  0  0  0  0  0  0  0  0  0  0
   -2.0786    2.9000    0.2817 H   0  0  0  0  0  0  0  0  0  0  0  0
    2.1578   -2.0102    0.9237 H   0  0  0  0  0  0  0  0  0  0  0  0
    1.6063    1.8633   -0.9400 H   0  0  0  0  0  0  0  0  0  0  0  0
   -5.7517    0.6839    0.0802 H   0  0  0  0  0  0  0  0  0  0  0  0
   -4.5527    2.8441    0.2834 H   0  0  0  0  0  0  0  0  0  0  0  0
    4.5699   -1.6483    0.9363 H   0  0  0  0  0  0  0  0  0  0  0  0
    4.0254    2.2127   -0.8950 H   0  0  0  0  0  0  0  0  0  0  0  0
    6.0022    1.3709   -0.3429 H   0  0  0  0  0  0  0  0  0  0  0  0
  1  5  1  0  0  0  0
  1  6  1  0  0  0  0
  2  8  2  0  0  0  0
  3 18  1  0  0  0  0
  3 28  1  0  0  0  0
  4  6  1  0  0  0  0
  4  8  1  0  0  0  0
  4 10  2  0  0  0  0
  5  7  1  0  0  0  0
  5  9  2  0  0  0  0
  6 11  2  0  0  0  0
  7 12  2  0  0  0  0
  7 13  1  0  0  0  0
  8  9  1  0  0  0  0
  9 19  1  0  0  0  0
 10 14  1  0  0  0  0
 10 20  1  0  0  0  0
 11 15  1  0  0  0  0
 11 21  1  0  0  0  0
 12 16  1  0  0  0  0
 12 22  1  0  0  0  0
 13 17  2  0  0  0  0
 13 23  1  0  0  0  0
 14 15  2  0  0  0  0
 14 24  1  0  0  0  0
 15 25  1  0  0  0  0
 16 18  2  0  0  0  0
 16 26  1  0  0  0  0
 17 18  1  0  0  0  0
 17 27  1  0  0  0  0
M  END
> <PUBCHEM_COMPOUND_CID>
229016

> <PUBCHEM_CONFORMER_RMSD>
0.6

> <PUBCHEM_CONFORMER_DIVERSEORDER>
1

> <PUBCHEM_MMFF94_PARTIAL_CHARGES>
28
1 -0.16
10 -0.15
11 -0.15
12 -0.15
13 -0.15
14 -0.15
15 -0.15
16 -0.15
17 -0.15
18 0.08
19 0.15
2 -0.57
20 0.15
21 0.15
22 0.15
23 0.15
24 0.15
25 0.15
26 0.15
27 0.15
28 0.45
3 -0.53
4 0.09
5 0.05
6 0.08
7 0.03
8 0.47
9 -0.14

> <PUBCHEM_EFFECTIVE_ROTOR_COUNT>
1

> <PUBCHEM_PHARMACOPHORE_FEATURES>
6
1 1 acceptor
1 2 acceptor
1 3 donor
6 1 4 5 6 8 9 rings
6 4 6 10 11 14 15 rings
6 7 12 13 16 17 18 rings

> <PUBCHEM_HEAVY_ATOM_COUNT>
18

> <PUBCHEM_ATOM_DEF_STEREO_COUNT>
0

> <PUBCHEM_ATOM_UDEF_STEREO_COUNT>
0

> <PUBCHEM_BOND_DEF_STEREO_COUNT>
0

> <PUBCHEM_BOND_UDEF_STEREO_COUNT>
0

> <PUBCHEM_ISOTOPIC_ATOM_COUNT>
0

> <PUBCHEM_COMPONENT_COUNT>
1

> <PUBCHEM_CACTVS_TAUTO_COUNT>
2

> <PUBCHEM_CONFORMER_ID>
00037E9800000001

> <PUBCHEM_MMFF94_ENERGY>
54.1598

> <PUBCHEM_FEATURE_SELFOVERLAP>
30.474

> <PUBCHEM_SHAPE_FINGERPRINT>
10411042 1 17907578387050234527
10616163 171 18411702131453465854
12107183 9 17758953719129598296
12173636 292 18412538838347946463
12236239 1 18186518813295570544
12251169 10 18335138687282702956
12390115 104 18058466313344364985
12403814 3 17967530156122998221
12500047 106 18342452647178483362
13140716 1 18196660816040533523
13167823 11 18334012796097806690
13380535 76 18342458102056189151
13760787 19 18408041823274737994
13897977 58 18409450293010883421
15042514 8 18338521971020508363
15196674 1 18410293571031688603
15442244 35 18336261228862886098
15536298 74 18341614750699082550
15669948 3 18341889735922219167
17492 89 18408324401716029554
1813 80 16805609118994298750
19050596 39 18261109703535446858
200 152 18341890805226300129
20279233 1 16559036003944408214
20510252 161 18201442424347719417
20645477 56 18412827979783238369
20645477 70 16414928448363061030
21267235 1 18336274504364165858
21524375 3 18411418367585675251
23402539 116 18343294873359686229
23402655 69 18407761447930805604
23557571 272 18130794502789734366
23559900 14 18202004292428213886
335352 9 18266177236637694334
3545911 37 18412546505186225396
4214541 1 18410573989668100948
474 4 17531534303548921932
474229 33 18411702084941613231
5104073 3 18335416885542213482
573450 72 18335973238362732898
58051976 100 18336266824920254446
69090 78 18409728439477558491
77779 3 18409168818234561378
9709674 26 18342463633642010518

> <PUBCHEM_SHAPE_MULTIPOLES>
352.82
10.17
2.09
0.67
6.28
0.59
0
-3.13
-0.49
-1.68
0.1
0.14
-0.01
-0.66

> <PUBCHEM_SHAPE_SELFOVERLAP>
787.71

> <PUBCHEM_SHAPE_VOLUME>
186.6

> <PUBCHEM_COORDINATE_TYPE>
2
5
10

$$$$
