52953106
  -OEChem-02172602273D

 85 89  0     1  0  0  0  0  0999 V2000
   -5.8129    1.7511    1.4244 O   0  0  0  0  0  0  0  0  0  0  0  0
   -7.9610   -1.2347    0.2144 O   0  0  0  0  0  0  0  0  0  0  0  0
   -1.8985    0.5246   -0.1103 C   0  0  1  0  0  0  0  0  0  0  0  0
   -3.4471    0.6211   -0.1715 C   0  0  2  0  0  0  0  0  0  0  0  0
   -2.7112    0.9393    1.1042 C   0  0  0  0  0  0  0  0  0  0  0  0
   -1.2447   -0.8780   -0.0115 C   0  0  2  0  0  0  0  0  0  0  0  0
   -4.2799   -0.6571   -0.2807 C   0  0  1  0  0  0  0  0  0  0  0  0
    0.1922   -0.9022   -0.5946 C   0  0  1  0  0  0  0  0  0  0  0  0
   -1.0996    1.6297   -0.8133 C   0  0  0  0  0  0  0  0  0  0  0  0
    0.9879    0.3283   -0.0434 C   0  0  2  0  0  0  0  0  0  0  0  0
   -4.0919    1.7951   -0.9055 C   0  0  0  0  0  0  0  0  0  0  0  0
   -2.1628   -1.9766   -0.5664 C   0  0  0  0  0  0  0  0  0  0  0  0
   -3.5210   -1.9274    0.1284 C   0  0  0  0  0  0  0  0  0  0  0  0
    0.4333    1.6067   -0.6758 C   0  0  0  0  0  0  0  0  0  0  0  0
   -5.6989   -0.4868    0.3854 C   0  0  1  0  0  0  0  0  0  0  0  0
    2.4416   -0.0326   -0.4515 C   0  0  2  0  0  0  0  0  0  0  0  0
    1.0731   -2.0699   -0.1012 C   0  0  0  0  0  0  0  0  0  0  0  0
   -5.6200    1.6877   -0.9665 C   0  0  0  0  0  0  0  0  0  0  0  0
   -6.1919    0.9959    0.2716 C   0  0  2  0  0  0  0  0  0  0  0  0
    2.5229   -1.5567   -0.2072 C   0  0  0  0  0  0  0  0  0  0  0  0
    0.1489   -1.0028   -2.1509 C   0  0  0  0  0  0  0  0  0  0  0  0
    0.9189    0.4992    1.5053 C   0  0  0  0  0  0  0  0  0  0  0  0
   -6.6985   -1.3823   -0.3911 C   0  0  0  0  0  0  0  0  0  0  0  0
    3.5696    0.7309    0.2332 C   0  0  1  0  0  0  0  0  0  0  0  0
   -5.7354   -0.9444    1.8586 C   0  0  0  0  0  0  0  0  0  0  0  0
    4.9358    0.2167   -0.2665 C   0  0  0  0  0  0  0  0  0  0  0  0
    3.3990    2.2349    0.0002 C   0  0  0  0  0  0  0  0  0  0  0  0
    6.1320    0.9137    0.3947 C   0  0  0  0  0  0  0  0  0  0  0  0
    7.4588    0.3683   -0.1002 C   0  0  0  0  0  0  0  0  0  0  0  0
    8.0860   -0.7509    0.7239 C   0  0  0  0  0  0  0  0  0  0  0  0
    8.0196    0.8886   -1.2055 C   0  0  0  0  0  0  0  0  0  0  0  0
    8.9417   -0.1721    1.8550 C   0  0  0  0  0  0  0  0  0  0  0  0
    8.9139   -1.7573   -0.0856 C   0  0  0  0  0  0  0  0  0  0  0  0
   -2.7860    0.2537    1.9401 H   0  0  0  0  0  0  0  0  0  0  0  0
   -2.6542    1.9712    1.4347 H   0  0  0  0  0  0  0  0  0  0  0  0
   -1.1478   -1.1033    1.0602 H   0  0  0  0  0  0  0  0  0  0  0  0
   -4.4502   -0.7730   -1.3631 H   0  0  0  0  0  0  0  0  0  0  0  0
   -1.3460    1.5910   -1.8814 H   0  0  0  0  0  0  0  0  0  0  0  0
   -1.4464    2.6177   -0.4836 H   0  0  0  0  0  0  0  0  0  0  0  0
   -3.8274    2.7415   -0.4183 H   0  0  0  0  0  0  0  0  0  0  0  0
   -3.7089    1.8490   -1.9312 H   0  0  0  0  0  0  0  0  0  0  0  0
   -2.3149   -1.8660   -1.6458 H   0  0  0  0  0  0  0  0  0  0  0  0
   -1.7087   -2.9599   -0.3977 H   0  0  0  0  0  0  0  0  0  0  0  0
   -3.3705   -1.9797    1.2121 H   0  0  0  0  0  0  0  0  0  0  0  0
   -4.0991   -2.8134   -0.1571 H   0  0  0  0  0  0  0  0  0  0  0  0
    0.8670    1.7705   -1.6705 H   0  0  0  0  0  0  0  0  0  0  0  0
    0.7024    2.4926   -0.0938 H   0  0  0  0  0  0  0  0  0  0  0  0
    2.5587    0.1373   -1.5301 H   0  0  0  0  0  0  0  0  0  0  0  0
    0.9351   -2.9889   -0.6812 H   0  0  0  0  0  0  0  0  0  0  0  0
    0.8496   -2.3249    0.9415 H   0  0  0  0  0  0  0  0  0  0  0  0
   -5.9178    1.1403   -1.8686 H   0  0  0  0  0  0  0  0  0  0  0  0
   -6.0335    2.6988   -1.0646 H   0  0  0  0  0  0  0  0  0  0  0  0
   -7.2849    1.0468    0.2304 H   0  0  0  0  0  0  0  0  0  0  0  0
    3.0581   -1.8077    0.7156 H   0  0  0  0  0  0  0  0  0  0  0  0
    3.0438   -2.0482   -1.0368 H   0  0  0  0  0  0  0  0  0  0  0  0
   -0.5094   -0.2614   -2.6073 H   0  0  0  0  0  0  0  0  0  0  0  0
   -0.2173   -1.9868   -2.4668 H   0  0  0  0  0  0  0  0  0  0  0  0
    1.1301   -0.8920   -2.6190 H   0  0  0  0  0  0  0  0  0  0  0  0
    1.2986   -0.3786    2.0374 H   0  0  0  0  0  0  0  0  0  0  0  0
   -0.0963    0.6755    1.8660 H   0  0  0  0  0  0  0  0  0  0  0  0
    1.4939    1.3582    1.8601 H   0  0  0  0  0  0  0  0  0  0  0  0
   -6.4125   -2.4381   -0.3481 H   0  0  0  0  0  0  0  0  0  0  0  0
   -6.7756   -1.0862   -1.4425 H   0  0  0  0  0  0  0  0  0  0  0  0
    3.5491    0.5514    1.3152 H   0  0  0  0  0  0  0  0  0  0  0  0
   -5.6050   -2.0284    1.9502 H   0  0  0  0  0  0  0  0  0  0  0  0
   -4.9481   -0.4667    2.4493 H   0  0  0  0  0  0  0  0  0  0  0  0
   -6.6898   -0.6948    2.3368 H   0  0  0  0  0  0  0  0  0  0  0  0
   -6.1458    2.6570    1.3056 H   0  0  0  0  0  0  0  0  0  0  0  0
    4.9957    0.3501   -1.3550 H   0  0  0  0  0  0  0  0  0  0  0  0
    5.0265   -0.8598   -0.0805 H   0  0  0  0  0  0  0  0  0  0  0  0
    3.2492    2.4656   -1.0596 H   0  0  0  0  0  0  0  0  0  0  0  0
    4.2698    2.8043    0.3330 H   0  0  0  0  0  0  0  0  0  0  0  0
    2.5820    2.6598    0.5806 H   0  0  0  0  0  0  0  0  0  0  0  0
   -8.5845   -1.7971   -0.2757 H   0  0  0  0  0  0  0  0  0  0  0  0
    6.1200    1.9887    0.1871 H   0  0  0  0  0  0  0  0  0  0  0  0
    6.0701    0.8177    1.4853 H   0  0  0  0  0  0  0  0  0  0  0  0
    7.2677   -1.3267    1.1771 H   0  0  0  0  0  0  0  0  0  0  0  0
    8.9732    0.5423   -1.5863 H   0  0  0  0  0  0  0  0  0  0  0  0
    7.5343    1.6876   -1.7572 H   0  0  0  0  0  0  0  0  0  0  0  0
    9.7911    0.3982    1.4623 H   0  0  0  0  0  0  0  0  0  0  0  0
    9.3381   -0.9726    2.4892 H   0  0  0  0  0  0  0  0  0  0  0  0
    8.3551    0.4962    2.4946 H   0  0  0  0  0  0  0  0  0  0  0  0
    9.2061   -2.6044    0.5449 H   0  0  0  0  0  0  0  0  0  0  0  0
    9.8333   -1.3109   -0.4794 H   0  0  0  0  0  0  0  0  0  0  0  0
    8.3358   -2.1549   -0.9268 H   0  0  0  0  0  0  0  0  0  0  0  0
  1 19  1  0  0  0  0
  1 68  1  0  0  0  0
  2 23  1  0  0  0  0
  2 74  1  0  0  0  0
  3  4  1  0  0  0  0
  3  5  1  0  0  0  0
  3  6  1  0  0  0  0
  3  9  1  0  0  0  0
  4  5  1  0  0  0  0
  4  7  1  0  0  0  0
  4 11  1  0  0  0  0
  5 34  1  0  0  0  0
  5 35  1  0  0  0  0
  6  8  1  0  0  0  0
  6 12  1  0  0  0  0
  6 36  1  0  0  0  0
  7 13  1  0  0  0  0
  7 15  1  0  0  0  0
  7 37  1  0  0  0  0
  8 10  1  0  0  0  0
  8 17  1  0  0  0  0
  8 21  1  0  0  0  0
  9 14  1  0  0  0  0
  9 38  1  0  0  0  0
  9 39  1  0  0  0  0
 10 14  1  0  0  0  0
 10 16  1  0  0  0  0
 10 22  1  0  0  0  0
 11 18  1  0  0  0  0
 11 40  1  0  0  0  0
 11 41  1  0  0  0  0
 12 13  1  0  0  0  0
 12 42  1  0  0  0  0
 12 43  1  0  0  0  0
 13 44  1  0  0  0  0
 13 45  1  0  0  0  0
 14 46  1  0  0  0  0
 14 47  1  0  0  0  0
 15 19  1  0  0  0  0
 15 23  1  0  0  0  0
 15 25  1  0  0  0  0
 16 20  1  0  0  0  0
 16 24  1  0  0  0  0
 16 48  1  0  0  0  0
 17 20  1  0  0  0  0
 17 49  1  0  0  0  0
 17 50  1  0  0  0  0
 18 19  1  0  0  0  0
 18 51  1  0  0  0  0
 18 52  1  0  0  0  0
 19 53  1  0  0  0  0
 20 54  1  0  0  0  0
 20 55  1  0  0  0  0
 21 56  1  0  0  0  0
 21 57  1  0  0  0  0
 21 58  1  0  0  0  0
 22 59  1  0  0  0  0
 22 60  1  0  0  0  0
 22 61  1  0  0  0  0
 23 62  1  0  0  0  0
 23 63  1  0  0  0  0
 24 26  1  0  0  0  0
 24 27  1  0  0  0  0
 24 64  1  0  0  0  0
 25 65  1  0  0  0  0
 25 66  1  0  0  0  0
 25 67  1  0  0  0  0
 26 28  1  0  0  0  0
 26 69  1  0  0  0  0
 26 70  1  0  0  0  0
 27 71  1  0  0  0  0
 27 72  1  0  0  0  0
 27 73  1  0  0  0  0
 28 29  1  0  0  0  0
 28 75  1  0  0  0  0
 28 76  1  0  0  0  0
 29 30  1  0  0  0  0
 29 31  2  0  0  0  0
 30 32  1  0  0  0  0
 30 33  1  0  0  0  0
 30 77  1  0  0  0  0
 31 78  1  0  0  0  0
 31 79  1  0  0  0  0
 32 80  1  0  0  0  0
 32 81  1  0  0  0  0
 32 82  1  0  0  0  0
 33 83  1  0  0  0  0
 33 84  1  0  0  0  0
 33 85  1  0  0  0  0
M  END
> <PUBCHEM_COMPOUND_CID>
52953106

> <PUBCHEM_CONFORMER_RMSD>
1

> <PUBCHEM_CONFORMER_DIVERSEORDER>
1
14
12
19
18
17
23
21
2
6
15
13
20
8
16
10
9
11
22
5
7
4
3

> <PUBCHEM_MMFF94_PARTIAL_CHARGES>
21
1 -0.68
11 0.09
19 0.28
2 -0.68
23 0.28
28 0.14
29 -0.28
3 -0.19
30 0.14
31 -0.3
34 0.1
35 0.1
4 -0.19
5 -0.2
6 0.09
68 0.4
7 0.09
74 0.4
78 0.15
79 0.15
9 0.09

> <PUBCHEM_EFFECTIVE_ROTOR_COUNT>
8.4

> <PUBCHEM_PHARMACOPHORE_FEATURES>
12
1 1 acceptor
1 1 donor
1 2 acceptor
1 2 donor
1 27 hydrophobe
1 31 hydrophobe
3 30 32 33 hydrophobe
5 24 26 28 29 30 hydrophobe
5 8 10 16 17 20 rings
6 3 6 8 9 10 14 rings
6 4 7 11 15 18 19 rings
7 3 4 5 6 7 12 13 rings

> <PUBCHEM_HEAVY_ATOM_COUNT>
33

> <PUBCHEM_ATOM_DEF_STEREO_COUNT>
10

> <PUBCHEM_ATOM_UDEF_STEREO_COUNT>
0

> <PUBCHEM_BOND_DEF_STEREO_COUNT>
0

> <PUBCHEM_BOND_UDEF_STEREO_COUNT>
0

> <PUBCHEM_ISOTOPIC_ATOM_COUNT>
0

> <PUBCHEM_COMPONENT_COUNT>
1

> <PUBCHEM_CACTVS_TAUTO_COUNT>
1

> <PUBCHEM_CONFORMER_ID>
0328001200000001

> <PUBCHEM_MMFF94_ENERGY>
136.777

> <PUBCHEM_FEATURE_SELFOVERLAP>
61.031

> <PUBCHEM_SHAPE_FINGERPRINT>
10 15 18334577966744401328
10050765 1 18047750399994540036
10299344 5 17894348878755580192
10580692 12 18411982464728323086
11135609 187 11815903340388844188
11135926 11 18409439267851473270
11524674 6 17417809565267198014
11719270 70 18272651230470635470
12236239 1 17458063776438430796
13811026 1 18409165502293053286
14251764 18 18408604768996398054
14856354 85 17968381246663343687
15131766 46 17389396115206554652
15183329 4 18343869909999905068
15198563 99 13696136359579986606
15301273 46 15864068767782075014
15461852 350 15068623807776062395
15849732 13 18407760348582961932
15927050 60 18408600383841317626
18608769 82 18410571795293097782
18681886 176 18341045310807470992
19611394 137 17896613953896537673
21267235 1 18333733541313161405
23522609 53 18116459019513152532
23559900 14 18201433705342653304
23569917 315 18410299137352632702
2838139 119 17704068512279577584
3178227 256 18341618131223245672
335352 9 18411419552959622252
3383291 50 18060138764713537374
350125 39 18410855469335599828
4093350 32 16845298190238044342
4325135 7 18342176691915132839
4625314 4 17603585252776324077
5104073 3 18335709291516718795
59755656 520 17312819403064486978
6081469 158 17749102301087305126
6201320 215 15553617179833714034
6669772 16 17846785070431796086

> <PUBCHEM_SHAPE_MULTIPOLES>
667.39
24.46
2.12
1.32
37.46
0.05
-0.18
2.84
-5.58
-1.1
0.27
0.13
-0.01
-0.05

> <PUBCHEM_SHAPE_SELFOVERLAP>
1401.912

> <PUBCHEM_SHAPE_VOLUME>
376.4

> <PUBCHEM_COORDINATE_TYPE>
2
5
10

$$$$
