24797519
  -OEChem-03052615083D

 40 40  0     1  0  0  0  0  0999 V2000
    4.7575   -0.8162   -0.4945 O   0  0  0  0  0  0  0  0  0  0  0  0
    1.3521    0.2900   -0.0416 O   0  0  0  0  0  0  0  0  0  0  0  0
    3.2824    0.9439    2.2437 O   0  0  0  0  0  0  0  0  0  0  0  0
    4.2061    2.0480   -1.2975 O   0  0  0  0  0  0  0  0  0  0  0  0
    5.4026    0.8546    1.4404 O   0  0  0  0  0  0  0  0  0  0  0  0
    1.4162   -3.4005    0.4919 O   0  0  0  0  0  0  0  0  0  0  0  0
    2.3034    2.7486   -0.2821 O   0  0  0  0  0  0  0  0  0  0  0  0
    2.7899   -2.8136   -1.2159 O   0  0  0  0  0  0  0  0  0  0  0  0
    0.4564    0.5113   -2.1598 O   0  0  0  0  0  0  0  0  0  0  0  0
   -6.8777   -0.4791   -1.2449 O   0  0  0  0  0  0  0  0  0  0  0  0
   -7.1925    0.0299    1.4687 O   0  0  0  0  0  0  0  0  0  0  0  0
    3.6485   -0.4348    0.3239 C   0  0  1  0  0  0  0  0  0  0  0  0
    2.6708    0.3582   -0.5747 C   0  0  2  0  0  0  0  0  0  0  0  0
    3.0084   -1.6926    0.9442 C   0  0  0  0  0  0  0  0  0  0  0  0
    4.2286    0.5162    1.3702 C   0  0  0  0  0  0  0  0  0  0  0  0
    3.0153    1.8359   -0.6813 C   0  0  0  0  0  0  0  0  0  0  0  0
    2.4185   -2.6665   -0.0602 C   0  0  0  0  0  0  0  0  0  0  0  0
    0.3403    0.3799   -0.9516 C   0  0  0  0  0  0  0  0  0  0  0  0
   -0.9417    0.2919   -0.2164 C   0  0  0  0  0  0  0  0  0  0  0  0
   -3.4332    0.2713   -0.2776 C   0  0  0  0  0  0  0  0  0  0  0  0
   -2.0972    0.3573   -0.8930 C   0  0  0  0  0  0  0  0  0  0  0  0
   -4.5397   -0.0672   -1.0567 C   0  0  0  0  0  0  0  0  0  0  0  0
   -3.5915    0.5281    1.0843 C   0  0  0  0  0  0  0  0  0  0  0  0
   -5.8044   -0.1491   -0.4740 C   0  0  0  0  0  0  0  0  0  0  0  0
   -4.8564    0.4466    1.6669 C   0  0  0  0  0  0  0  0  0  0  0  0
   -5.9628    0.1079    0.8878 C   0  0  0  0  0  0  0  0  0  0  0  0
    2.6941   -0.0558   -1.5918 H   0  0  0  0  0  0  0  0  0  0  0  0
    3.7640   -2.2521    1.5098 H   0  0  0  0  0  0  0  0  0  0  0  0
    2.2223   -1.4053    1.6529 H   0  0  0  0  0  0  0  0  0  0  0  0
    5.3503   -1.3698    0.0423 H   0  0  0  0  0  0  0  0  0  0  0  0
    3.6550    1.5498    2.9192 H   0  0  0  0  0  0  0  0  0  0  0  0
   -0.8852    0.1549    0.8572 H   0  0  0  0  0  0  0  0  0  0  0  0
    4.4154    3.0036   -1.3699 H   0  0  0  0  0  0  0  0  0  0  0  0
    1.0367   -4.0398   -0.1480 H   0  0  0  0  0  0  0  0  0  0  0  0
   -2.0917    0.4692   -1.9748 H   0  0  0  0  0  0  0  0  0  0  0  0
   -4.4202   -0.2693   -2.1191 H   0  0  0  0  0  0  0  0  0  0  0  0
   -2.7630    0.8144    1.7253 H   0  0  0  0  0  0  0  0  0  0  0  0
   -4.9668    0.6533    2.7282 H   0  0  0  0  0  0  0  0  0  0  0  0
   -6.5799   -0.6209   -2.1598 H   0  0  0  0  0  0  0  0  0  0  0  0
   -7.1096    0.2390    2.4149 H   0  0  0  0  0  0  0  0  0  0  0  0
  1 12  1  0  0  0  0
  1 30  1  0  0  0  0
  2 13  1  0  0  0  0
  2 18  1  0  0  0  0
  3 15  1  0  0  0  0
  3 31  1  0  0  0  0
  4 16  1  0  0  0  0
  4 33  1  0  0  0  0
  5 15  2  0  0  0  0
  6 17  1  0  0  0  0
  6 34  1  0  0  0  0
  7 16  2  0  0  0  0
  8 17  2  0  0  0  0
  9 18  2  0  0  0  0
 10 24  1  0  0  0  0
 10 39  1  0  0  0  0
 11 26  1  0  0  0  0
 11 40  1  0  0  0  0
 12 13  1  0  0  0  0
 12 14  1  0  0  0  0
 12 15  1  0  0  0  0
 13 16  1  0  0  0  0
 13 27  1  0  0  0  0
 14 17  1  0  0  0  0
 14 28  1  0  0  0  0
 14 29  1  0  0  0  0
 18 19  1  0  0  0  0
 19 21  2  0  0  0  0
 19 32  1  0  0  0  0
 20 21  1  0  0  0  0
 20 22  2  0  0  0  0
 20 23  1  0  0  0  0
 21 35  1  0  0  0  0
 22 24  1  0  0  0  0
 22 36  1  0  0  0  0
 23 25  2  0  0  0  0
 23 37  1  0  0  0  0
 24 26  2  0  0  0  0
 25 26  1  0  0  0  0
 25 38  1  0  0  0  0
M  END
> <PUBCHEM_COMPOUND_CID>
24797519

> <PUBCHEM_CONFORMER_RMSD>
1

> <PUBCHEM_CONFORMER_DIVERSEORDER>
1
134
112
104
119
149
145
117
98
51
86
59
92
65
96
50
77
87
113
55
70
56
146
144
150
71
140
36
116
93
129
78
22
54
19
27
33
39
110
108
103
57
83
120
109
72
67
126
10
107
37
122
30
95
102
79
43
111
20
66
99
16
125
130
141
123
60
68
73
136
135
40
46
45
53
100
3
81
114
32
52
2
148
14
26
28
47
128
58
89
152
124
29
88
69
106
97
133
23
101
105
35
61
91
142
9
62
63
74
31
41
85
24
80
121
131
6
76
11
94
25
5
138
75
64
143
137
127
139
7
49
147
12
17
15
118
82
132
44
13
18
84
115
151
8
42
38
34
4
90
21
48

> <PUBCHEM_MMFF94_PARTIAL_CHARGES>
37
1 -0.68
10 -0.53
11 -0.53
12 0.34
13 0.34
14 0.06
15 0.66
16 0.66
17 0.66
18 0.71
19 -0.14
2 -0.43
20 0.03
21 -0.18
22 -0.15
23 -0.15
24 0.08
25 -0.15
26 0.08
3 -0.65
30 0.4
31 0.5
32 0.15
33 0.5
34 0.5
35 0.15
36 0.15
37 0.15
38 0.15
39 0.45
4 -0.65
40 0.45
5 -0.57
6 -0.65
7 -0.57
8 -0.57
9 -0.57

> <PUBCHEM_EFFECTIVE_ROTOR_COUNT>
9

> <PUBCHEM_PHARMACOPHORE_FEATURES>
15
1 1 acceptor
1 1 donor
1 10 donor
1 11 donor
1 3 acceptor
1 4 acceptor
1 5 acceptor
1 6 acceptor
1 7 acceptor
1 8 acceptor
1 9 acceptor
3 3 5 15 anion
3 4 7 16 anion
3 6 8 17 anion
6 20 22 23 24 25 26 rings

> <PUBCHEM_HEAVY_ATOM_COUNT>
26

> <PUBCHEM_ATOM_DEF_STEREO_COUNT>
0

> <PUBCHEM_ATOM_UDEF_STEREO_COUNT>
2

> <PUBCHEM_BOND_DEF_STEREO_COUNT>
1

> <PUBCHEM_BOND_UDEF_STEREO_COUNT>
0

> <PUBCHEM_ISOTOPIC_ATOM_COUNT>
0

> <PUBCHEM_COMPONENT_COUNT>
1

> <PUBCHEM_CACTVS_TAUTO_COUNT>
10

> <PUBCHEM_CONFORMER_ID>
017A614F00000001

> <PUBCHEM_MMFF94_ENERGY>
53.9675

> <PUBCHEM_FEATURE_SELFOVERLAP>
76.321

> <PUBCHEM_SHAPE_FINGERPRINT>
10670039 82 13614252481014813715
11059845 2 16194820337502387283
114674 6 17968662596764535707
11595378 159 17631738162633748825
12107183 9 17623299264835098491
12236239 1 17775283859436387247
12596602 18 17632573864395690203
12633257 1 18041550425523983498
12778500 126 17560246807892888650
13533116 47 18343305825742789419
13583140 156 18129924703335573725
14849402 71 17917138494940766648
14863182 85 18410013217801351206
15142526 21 17558244782266208704
17844677 252 16443067197149243437
19377110 9 18060701710951817723
1979834 28 18333169479216508980
20511986 3 18059561478628208863
20645477 70 18186234022139916495
21197605 99 18116443733154729947
21623969 137 18113905965891150579
22224240 67 18338788001278381522
23559900 14 18040724700723280621
239999 70 17167868573287451548
3004659 81 12901543542121569609
3633792 109 18337379462965106439
42630746 31 18408319977746032246
4340502 62 18342172284672356786
465052 167 17458058257869451720
8272917 22 18411425007483672518

> <PUBCHEM_SHAPE_MULTIPOLES>
470.51
15.7
2.29
1.68
24.19
1.58
0.34
-0.6
3.92
-4.37
-0.37
0.14
-0.3
-0.21

> <PUBCHEM_SHAPE_SELFOVERLAP>
991.405

> <PUBCHEM_SHAPE_VOLUME>
260.8

> <PUBCHEM_COORDINATE_TYPE>
2
5
10

$$$$
