102213876
  -OEChem-02172602473D

 36 38  0     0  0  0  0  0  0999 V2000
    0.7291    1.6098   -1.0433 O   0  0  0  0  0  0  0  0  0  0  0  0
   -1.6169    2.6084   -0.3057 O   0  0  0  0  0  0  0  0  0  0  0  0
   -4.9658   -0.3542    0.9304 O   0  0  0  0  0  0  0  0  0  0  0  0
    0.9722   -0.6930   -1.0594 N   0  0  0  0  0  0  0  0  0  0  0  0
   -2.9031   -1.1829    0.2626 N   0  0  0  0  0  0  0  0  0  0  0  0
   -3.3152    1.1556    0.3320 N   0  0  0  0  0  0  0  0  0  0  0  0
   -0.8275   -2.0822   -0.4058 N   0  0  0  0  0  0  0  0  0  0  0  0
   -1.1434    0.2960   -0.3770 C   0  0  0  0  0  0  0  0  0  0  0  0
   -1.5978   -0.9576   -0.1833 C   0  0  0  0  0  0  0  0  0  0  0  0
    0.2673    0.4861   -0.8564 C   0  0  0  0  0  0  0  0  0  0  0  0
    2.3484   -0.6273   -1.5265 C   0  0  0  0  0  0  0  0  0  0  0  0
   -2.0314    1.4654   -0.1188 C   0  0  0  0  0  0  0  0  0  0  0  0
   -3.8122   -0.1483    0.5374 C   0  0  0  0  0  0  0  0  0  0  0  0
    0.3818   -1.9104   -0.8199 C   0  0  0  0  0  0  0  0  0  0  0  0
    3.2975   -0.2473   -0.4271 C   0  0  0  0  0  0  0  0  0  0  0  0
   -3.3455   -2.5686    0.4529 C   0  0  0  0  0  0  0  0  0  0  0  0
   -4.2158    2.2702    0.6135 C   0  0  0  0  0  0  0  0  0  0  0  0
    4.0784    0.9024   -0.5458 C   0  0  0  0  0  0  0  0  0  0  0  0
    3.3984   -1.0441    0.7132 C   0  0  0  0  0  0  0  0  0  0  0  0
    4.9602    1.2552    0.4759 C   0  0  0  0  0  0  0  0  0  0  0  0
    4.2800   -0.6914    1.7349 C   0  0  0  0  0  0  0  0  0  0  0  0
    5.0610    0.4583    1.6162 C   0  0  0  0  0  0  0  0  0  0  0  0
    2.3942    0.1025   -2.3443 H   0  0  0  0  0  0  0  0  0  0  0  0
    2.6532   -1.5955   -1.9421 H   0  0  0  0  0  0  0  0  0  0  0  0
    1.0280   -2.7813   -1.0092 H   0  0  0  0  0  0  0  0  0  0  0  0
   -2.7094   -3.0515    1.2018 H   0  0  0  0  0  0  0  0  0  0  0  0
   -4.3803   -2.6205    0.8017 H   0  0  0  0  0  0  0  0  0  0  0  0
   -3.2805   -3.1030   -0.5005 H   0  0  0  0  0  0  0  0  0  0  0  0
   -5.0753    2.1996   -0.0609 H   0  0  0  0  0  0  0  0  0  0  0  0
   -3.7374    3.2441    0.4875 H   0  0  0  0  0  0  0  0  0  0  0  0
   -4.5803    2.1783    1.6417 H   0  0  0  0  0  0  0  0  0  0  0  0
    4.0107    1.5336   -1.4278 H   0  0  0  0  0  0  0  0  0  0  0  0
    2.8050   -1.9477    0.8199 H   0  0  0  0  0  0  0  0  0  0  0  0
    5.5683    2.1504    0.3836 H   0  0  0  0  0  0  0  0  0  0  0  0
    4.3601   -1.3128    2.6220 H   0  0  0  0  0  0  0  0  0  0  0  0
    5.7478    0.7327    2.4115 H   0  0  0  0  0  0  0  0  0  0  0  0
  1 10  2  0  0  0  0
  2 12  2  0  0  0  0
  3 13  2  0  0  0  0
  4 10  1  0  0  0  0
  4 11  1  0  0  0  0
  4 14  1  0  0  0  0
  5  9  1  0  0  0  0
  5 13  1  0  0  0  0
  5 16  1  0  0  0  0
  6 12  1  0  0  0  0
  6 13  1  0  0  0  0
  6 17  1  0  0  0  0
  7  9  1  0  0  0  0
  7 14  2  0  0  0  0
  8  9  2  0  0  0  0
  8 10  1  0  0  0  0
  8 12  1  0  0  0  0
 11 15  1  0  0  0  0
 11 23  1  0  0  0  0
 11 24  1  0  0  0  0
 14 25  1  0  0  0  0
 15 18  2  0  0  0  0
 15 19  1  0  0  0  0
 16 26  1  0  0  0  0
 16 27  1  0  0  0  0
 16 28  1  0  0  0  0
 17 29  1  0  0  0  0
 17 30  1  0  0  0  0
 17 31  1  0  0  0  0
 18 20  1  0  0  0  0
 18 32  1  0  0  0  0
 19 21  2  0  0  0  0
 19 33  1  0  0  0  0
 20 22  2  0  0  0  0
 20 34  1  0  0  0  0
 21 22  1  0  0  0  0
 21 35  1  0  0  0  0
 22 36  1  0  0  0  0
M  END
> <PUBCHEM_COMPOUND_CID>
102213876

> <PUBCHEM_CONFORMER_RMSD>
0.6

> <PUBCHEM_CONFORMER_DIVERSEORDER>
1
9
4
7
6
10
11
5
8
2
3

> <PUBCHEM_MMFF94_PARTIAL_CHARGES>
28
1 -0.57
10 0.62
11 0.44
12 0.62
13 0.69
14 0.45
15 -0.14
16 0.3
17 0.3
18 -0.15
19 -0.15
2 -0.57
20 -0.15
21 -0.15
22 -0.15
25 0.06
3 -0.57
32 0.15
33 0.15
34 0.15
35 0.15
36 0.15
4 -0.42
5 -0.47
6 -0.42
7 -0.62
8 0.03
9 0.28

> <PUBCHEM_EFFECTIVE_ROTOR_COUNT>
2

> <PUBCHEM_PHARMACOPHORE_FEATURES>
6
1 1 acceptor
1 2 acceptor
1 3 acceptor
6 15 18 19 20 21 22 rings
6 4 7 8 9 10 14 rings
6 5 6 8 9 12 13 rings

> <PUBCHEM_HEAVY_ATOM_COUNT>
22

> <PUBCHEM_ATOM_DEF_STEREO_COUNT>
0

> <PUBCHEM_ATOM_UDEF_STEREO_COUNT>
0

> <PUBCHEM_BOND_DEF_STEREO_COUNT>
0

> <PUBCHEM_BOND_UDEF_STEREO_COUNT>
0

> <PUBCHEM_ISOTOPIC_ATOM_COUNT>
0

> <PUBCHEM_COMPONENT_COUNT>
1

> <PUBCHEM_CACTVS_TAUTO_COUNT>
1

> <PUBCHEM_CONFORMER_ID>
0617A8F400000001

> <PUBCHEM_MMFF94_ENERGY>
56.4989

> <PUBCHEM_FEATURE_SELFOVERLAP>
30.484

> <PUBCHEM_SHAPE_FINGERPRINT>
10319926 262 18340482267124385530
10498660 4 16056587781848486832
11132069 177 18411145710018464029
11595378 159 18186801374798994812
12107183 9 17829319199369435762
12251169 10 18408318904547286868
12403259 415 18059303075704135380
12596602 18 17749106725040938976
12633257 1 18272642489636720512
12670546 177 10159698010434003978
12788726 201 17683541884620637202
12839892 36 18409448089724763843
12892183 10 18260545619647583402
12969540 114 16200429169690322756
13140716 1 18266188412290122323
13583140 156 17749374980002856308
14081887 123 18341614767841846577
14178342 30 18335708208562740239
14341114 176 18409166589594836976
14341114 328 18186800309873809408
14420673 8 18048310051767513066
14787075 74 17917987313015351297
17349148 13 18408601478835185063
1813 80 16515687702422498838
18186145 218 15698278928378395926
193927 3 14129340646440194058
19784866 170 18343306972166540310
200 152 15357688704399375838
20374829 77 10737284658243852836
20510252 161 18271814514014509464
20645477 70 14056722366028601838
20871999 31 9367345955098661098
21033648 29 17632293475897752616
21065198 48 18260542342861739138
23366157 5 17608664039099328645
23402539 116 18340482357213106359
23557571 272 18200612340007134871
23559900 14 18198639752128726942
2748010 2 17758696451021097391
2838139 119 15051730893978665802
3009799 131 18337093666924521247
341906 21 18413673508720366992
394222 165 17389132175979445596
4072396 5 18261392222210517391
474 4 14692567749753512586
49207404 50 18202002101614980822
495365 180 17346033351716621878
5104073 3 18267597814350838715
58807428 26 18262242114359879627
7064713 232 18340209596097486256
7097593 13 17970333833622781706
7808743 9 18057317500108497952
90316 7 17895194355103906900
9862522 239 18189608359307500013

> <PUBCHEM_SHAPE_MULTIPOLES>
415.22
10.51
2.37
1.29
4.04
0.09
0.15
2.25
5.31
-2.46
-0.02
1.35
-0.12
0.02

> <PUBCHEM_SHAPE_SELFOVERLAP>
906.157

> <PUBCHEM_SHAPE_VOLUME>
223.5

> <PUBCHEM_COORDINATE_TYPE>
2
5
10

$$$$
