25087106
  -OEChem-03052615073D

 32 34  0     0  0  0  0  0  0999 V2000
   -0.4433   -0.7908   -0.0264 O   0  0  0  0  0  0  0  0  0  0  0  0
    3.3883    2.1635    0.0832 O   0  0  0  0  0  0  0  0  0  0  0  0
    1.2328   -2.9163   -0.1365 O   0  0  0  0  0  0  0  0  0  0  0  0
   -1.7718    2.6627    0.1669 O   0  0  0  0  0  0  0  0  0  0  0  0
    5.0238   -0.0151   -0.0298 O   0  0  0  0  0  0  0  0  0  0  0  0
    3.9640   -2.5550   -0.1400 O   0  0  0  0  0  0  0  0  0  0  0  0
    0.9430    3.0352    0.1454 O   0  0  0  0  0  0  0  0  0  0  0  0
    1.4411    0.7353    0.0309 C   0  0  0  0  0  0  0  0  0  0  0  0
    0.9053   -0.5485   -0.0247 C   0  0  0  0  0  0  0  0  0  0  0  0
   -1.3105    0.2892    0.0213 C   0  0  0  0  0  0  0  0  0  0  0  0
    0.5263    1.8854    0.0922 C   0  0  0  0  0  0  0  0  0  0  0  0
    2.8257    0.9226    0.0295 C   0  0  0  0  0  0  0  0  0  0  0  0
    1.7517   -1.6563   -0.0822 C   0  0  0  0  0  0  0  0  0  0  0  0
   -0.9250    1.5793    0.0885 C   0  0  0  0  0  0  0  0  0  0  0  0
   -2.7216   -0.1272    0.0014 C   0  0  0  0  0  0  0  0  0  0  0  0
    3.6705   -0.1866   -0.0283 C   0  0  0  0  0  0  0  0  0  0  0  0
    3.1346   -1.4737   -0.0841 C   0  0  0  0  0  0  0  0  0  0  0  0
   -3.5630    0.3086   -1.0223 C   0  0  0  0  0  0  0  0  0  0  0  0
   -3.2181   -0.9579    1.0061 C   0  0  0  0  0  0  0  0  0  0  0  0
   -4.9008   -0.0858   -1.0413 C   0  0  0  0  0  0  0  0  0  0  0  0
   -4.5559   -1.3523    0.9870 C   0  0  0  0  0  0  0  0  0  0  0  0
   -5.3972   -0.9163   -0.0366 C   0  0  0  0  0  0  0  0  0  0  0  0
   -3.1938    0.9508   -1.8185 H   0  0  0  0  0  0  0  0  0  0  0  0
   -2.5769   -1.3048    1.8128 H   0  0  0  0  0  0  0  0  0  0  0  0
   -5.5557    0.2524   -1.8390 H   0  0  0  0  0  0  0  0  0  0  0  0
   -4.9429   -1.9985    1.7694 H   0  0  0  0  0  0  0  0  0  0  0  0
    2.7053    2.8501    0.1165 H   0  0  0  0  0  0  0  0  0  0  0  0
    1.8777   -3.5167   -0.5445 H   0  0  0  0  0  0  0  0  0  0  0  0
   -1.2245    3.4659    0.2076 H   0  0  0  0  0  0  0  0  0  0  0  0
   -6.4388   -1.2237   -0.0515 H   0  0  0  0  0  0  0  0  0  0  0  0
    5.4447   -0.8913   -0.0734 H   0  0  0  0  0  0  0  0  0  0  0  0
    3.5019   -3.3379    0.2010 H   0  0  0  0  0  0  0  0  0  0  0  0
  1  9  1  0  0  0  0
  1 10  1  0  0  0  0
  2 12  1  0  0  0  0
  2 27  1  0  0  0  0
  3 13  1  0  0  0  0
  3 28  1  0  0  0  0
  4 14  1  0  0  0  0
  4 29  1  0  0  0  0
  5 16  1  0  0  0  0
  5 31  1  0  0  0  0
  6 17  1  0  0  0  0
  6 32  1  0  0  0  0
  7 11  2  0  0  0  0
  8  9  1  0  0  0  0
  8 11  1  0  0  0  0
  8 12  2  0  0  0  0
  9 13  2  0  0  0  0
 10 14  2  0  0  0  0
 10 15  1  0  0  0  0
 11 14  1  0  0  0  0
 12 16  1  0  0  0  0
 13 17  1  0  0  0  0
 15 18  2  0  0  0  0
 15 19  1  0  0  0  0
 16 17  2  0  0  0  0
 18 20  1  0  0  0  0
 18 23  1  0  0  0  0
 19 21  2  0  0  0  0
 19 24  1  0  0  0  0
 20 22  2  0  0  0  0
 20 25  1  0  0  0  0
 21 22  1  0  0  0  0
 21 26  1  0  0  0  0
 22 30  1  0  0  0  0
M  END
> <PUBCHEM_COMPOUND_CID>
25087106

> <PUBCHEM_CONFORMER_RMSD>
0.6

> <PUBCHEM_CONFORMER_DIVERSEORDER>
1
2

> <PUBCHEM_MMFF94_PARTIAL_CHARGES>
32
1 -0.16
10 0.05
11 0.47
12 0.08
13 0.08
14 0.09
15 0.03
16 0.08
17 0.08
18 -0.15
19 -0.15
2 -0.53
20 -0.15
21 -0.15
22 -0.15
23 0.15
24 0.15
25 0.15
26 0.15
27 0.45
28 0.45
29 0.45
3 -0.53
30 0.15
31 0.45
32 0.45
4 -0.53
5 -0.53
6 -0.53
7 -0.57
8 0.09
9 0.08

> <PUBCHEM_EFFECTIVE_ROTOR_COUNT>
1

> <PUBCHEM_PHARMACOPHORE_FEATURES>
10
1 1 acceptor
1 2 donor
1 3 donor
1 4 donor
1 5 donor
1 6 donor
1 7 acceptor
6 1 8 9 10 11 14 rings
6 15 18 19 20 21 22 rings
6 8 9 12 13 16 17 rings

> <PUBCHEM_HEAVY_ATOM_COUNT>
22

> <PUBCHEM_ATOM_DEF_STEREO_COUNT>
0

> <PUBCHEM_ATOM_UDEF_STEREO_COUNT>
0

> <PUBCHEM_BOND_DEF_STEREO_COUNT>
0

> <PUBCHEM_BOND_UDEF_STEREO_COUNT>
0

> <PUBCHEM_ISOTOPIC_ATOM_COUNT>
0

> <PUBCHEM_COMPONENT_COUNT>
1

> <PUBCHEM_CACTVS_TAUTO_COUNT>
134

> <PUBCHEM_CONFORMER_ID>
017ECC8200000001

> <PUBCHEM_MMFF94_ENERGY>
68.6658

> <PUBCHEM_FEATURE_SELFOVERLAP>
50.791

> <PUBCHEM_SHAPE_FINGERPRINT>
10411042 1 18267304227656452118
10967382 1 18339361967479986384
11471102 20 18410853308518520501
11796584 16 16950275196085638962
11806522 49 18409449167724112230
12236239 1 17489310832544318727
12553582 1 18342730832162831183
12596602 18 16845006931088417107
13140716 1 17908982450233732960
13402501 40 18188214298991687571
13544653 18 18408890620323198407
13862211 1 18411976970911127078
14178342 30 18124023543040894208
14386348 63 18259987102232260787
14790565 3 17616542091093514468
15196674 1 18339360756177909116
15375358 24 18260545649775638443
15961568 22 16588871316278402924
16945 1 18340486763295670176
17357779 13 18335690633820302973
17492 89 18195245520826576502
1813 80 18059871544601108389
200 152 18273492364890796163
20028762 73 18130784624313005630
20261772 1 18059851774729689655
20645477 70 18408880759030943895
21033650 10 15937534736776997508
21267235 1 18412271627026314246
21279426 13 18263358093329897621
21641784 216 18115325405217065468
221357 26 18335973213067715405
221490 88 18409451353920462108
22182313 1 18266156427389607404
23558518 356 18189066291094837417
23559900 14 18333726905625508377
26918003 58 18260264157466019275
2748010 2 18339917109141009956
2871803 45 18335701611339882214
312423 11 18270413697583018388
33824 294 18410571825146872282
350125 39 18410857672696221904
46194498 28 17677328454660068525
5104073 3 18269833112910520994
5283173 99 18114452350293088797
59755656 215 18409731755757093038
9709674 26 18267024959897045999

> <PUBCHEM_SHAPE_MULTIPOLES>
411.66
9.86
2.72
0.8
5.37
0.55
0.01
-3.69
0.53
-2.07
-0.16
0.84
-0.09
0.65

> <PUBCHEM_SHAPE_SELFOVERLAP>
926.222

> <PUBCHEM_SHAPE_VOLUME>
215.4

> <PUBCHEM_COORDINATE_TYPE>
2
5
10

$$$$
