25080064
  -OEChem-03052615083D

 73 77  0     1  0  0  0  0  0999 V2000
    4.0745   -0.0220   -0.3762 O   0  0  0  0  0  0  0  0  0  0  0  0
   -5.3135   -1.1108    0.3169 O   0  0  0  0  0  0  0  0  0  0  0  0
    2.8678    1.1655    1.2292 O   0  0  0  0  0  0  0  0  0  0  0  0
    6.9804    2.8765   -0.5238 O   0  0  0  0  0  0  0  0  0  0  0  0
    6.7827    0.9293   -2.6511 O   0  0  0  0  0  0  0  0  0  0  0  0
   -4.7260    1.0690   -0.4145 O   0  0  0  0  0  0  0  0  0  0  0  0
    4.3102    3.5041    0.5517 O   0  0  0  0  0  0  0  0  0  0  0  0
   -9.0042    0.4888   -0.6939 O   0  0  0  0  0  0  0  0  0  0  0  0
   -7.8667   -1.5778   -2.3008 O   0  0  0  0  0  0  0  0  0  0  0  0
   -7.5542    0.0991    1.6493 O   0  0  0  0  0  0  0  0  0  0  0  0
    5.9170   -2.0125   -0.9536 O   0  0  0  0  0  0  0  0  0  0  0  0
   -0.3376   -0.5072    0.5117 O   0  0  0  0  0  0  0  0  0  0  0  0
    1.0988    3.2863    0.9001 O   0  0  0  0  0  0  0  0  0  0  0  0
   -1.2834    4.2450    0.4067 O   0  0  0  0  0  0  0  0  0  0  0  0
    2.7107   -4.4322   -1.0142 O   0  0  0  0  0  0  0  0  0  0  0  0
    4.0149   -4.9769    1.3784 O   0  0  0  0  0  0  0  0  0  0  0  0
    5.7595    2.2424   -0.9081 C   0  0  1  0  0  0  0  0  0  0  0  0
    6.0934    0.8365   -1.4070 C   0  0  1  0  0  0  0  0  0  0  0  0
    4.8120    2.1935    0.2908 C   0  0  2  0  0  0  0  0  0  0  0  0
    4.8191    0.0099   -1.5952 C   0  0  1  0  0  0  0  0  0  0  0  0
   -7.6020    0.2418   -0.7689 C   0  0  2  0  0  0  0  0  0  0  0  0
   -7.3655   -1.2501   -1.0072 C   0  0  2  0  0  0  0  0  0  0  0  0
    3.6236    1.2702    0.0229 C   0  0  1  0  0  0  0  0  0  0  0  0
   -6.9219    0.7048    0.5206 C   0  0  2  0  0  0  0  0  0  0  0  0
   -5.8659   -1.5666   -0.9223 C   0  0  2  0  0  0  0  0  0  0  0  0
   -5.4499    0.2972    0.5377 C   0  0  1  0  0  0  0  0  0  0  0  0
    5.1332   -1.4323   -1.9802 C   0  0  0  0  0  0  0  0  0  0  0  0
   -5.5920   -3.0656   -1.0078 C   0  0  0  0  0  0  0  0  0  0  0  0
    1.5331    0.9590    0.9552 C   0  0  0  0  0  0  0  0  0  0  0  0
   -3.4152    1.3373   -0.1216 C   0  0  0  0  0  0  0  0  0  0  0  0
   -0.7494    1.8847    0.4737 C   0  0  0  0  0  0  0  0  0  0  0  0
    0.6636    2.1482    0.7865 C   0  0  0  0  0  0  0  0  0  0  0  0
    0.9919   -0.2653    0.8192 C   0  0  0  0  0  0  0  0  0  0  0  0
   -1.1774    0.5646    0.3519 C   0  0  0  0  0  0  0  0  0  0  0  0
   -2.5120    0.2885    0.0535 C   0  0  0  0  0  0  0  0  0  0  0  0
   -2.9852    2.6592    0.0010 C   0  0  0  0  0  0  0  0  0  0  0  0
   -1.6507    2.9377    0.2989 C   0  0  0  0  0  0  0  0  0  0  0  0
    1.7826   -1.5008    0.9627 C   0  0  0  0  0  0  0  0  0  0  0  0
    1.8774   -2.3958   -0.1030 C   0  0  0  0  0  0  0  0  0  0  0  0
    2.4361   -1.7750    2.1641 C   0  0  0  0  0  0  0  0  0  0  0  0
    2.6262   -3.5649    0.0327 C   0  0  0  0  0  0  0  0  0  0  0  0
    3.1845   -2.9442    2.2997 C   0  0  0  0  0  0  0  0  0  0  0  0
    3.2796   -3.8392    1.2341 C   0  0  0  0  0  0  0  0  0  0  0  0
    5.3390    2.8539   -1.7151 H   0  0  0  0  0  0  0  0  0  0  0  0
    6.7733    0.3564   -0.6933 H   0  0  0  0  0  0  0  0  0  0  0  0
    5.3492    1.8752    1.1921 H   0  0  0  0  0  0  0  0  0  0  0  0
    4.1937    0.4371   -2.3902 H   0  0  0  0  0  0  0  0  0  0  0  0
   -7.2234    0.8171   -1.6229 H   0  0  0  0  0  0  0  0  0  0  0  0
   -7.9331   -1.8386   -0.2766 H   0  0  0  0  0  0  0  0  0  0  0  0
    3.0050    1.7024   -0.7787 H   0  0  0  0  0  0  0  0  0  0  0  0
   -7.0361    1.7902    0.6223 H   0  0  0  0  0  0  0  0  0  0  0  0
   -5.3280   -1.0883   -1.7510 H   0  0  0  0  0  0  0  0  0  0  0  0
   -5.0539    0.4871    1.5447 H   0  0  0  0  0  0  0  0  0  0  0  0
    5.6844   -1.4859   -2.9240 H   0  0  0  0  0  0  0  0  0  0  0  0
    4.2119   -2.0134   -2.0758 H   0  0  0  0  0  0  0  0  0  0  0  0
   -6.0737   -3.5983   -0.1805 H   0  0  0  0  0  0  0  0  0  0  0  0
   -4.5174   -3.2615   -0.9243 H   0  0  0  0  0  0  0  0  0  0  0  0
   -5.9494   -3.4865   -1.9521 H   0  0  0  0  0  0  0  0  0  0  0  0
    7.3684    2.3678    0.2085 H   0  0  0  0  0  0  0  0  0  0  0  0
    6.1878    1.3527   -3.2933 H   0  0  0  0  0  0  0  0  0  0  0  0
    3.8235    3.8031   -0.2352 H   0  0  0  0  0  0  0  0  0  0  0  0
   -9.1252    1.4405   -0.5347 H   0  0  0  0  0  0  0  0  0  0  0  0
   -7.3489   -1.0833   -2.9588 H   0  0  0  0  0  0  0  0  0  0  0  0
   -7.1360    0.4601    2.4495 H   0  0  0  0  0  0  0  0  0  0  0  0
    6.0889   -2.9345   -1.2103 H   0  0  0  0  0  0  0  0  0  0  0  0
   -2.8276   -0.7447   -0.0563 H   0  0  0  0  0  0  0  0  0  0  0  0
   -3.6938    3.4725   -0.1363 H   0  0  0  0  0  0  0  0  0  0  0  0
    1.3722   -2.1825   -1.0426 H   0  0  0  0  0  0  0  0  0  0  0  0
    2.3689   -1.0939    3.0091 H   0  0  0  0  0  0  0  0  0  0  0  0
   -0.3400    4.3173    0.6175 H   0  0  0  0  0  0  0  0  0  0  0  0
    3.6876   -3.1461    3.2416 H   0  0  0  0  0  0  0  0  0  0  0  0
    2.2008   -4.0770   -1.7624 H   0  0  0  0  0  0  0  0  0  0  0  0
    4.3942   -4.9973    2.2738 H   0  0  0  0  0  0  0  0  0  0  0  0
  1 20  1  0  0  0  0
  1 23  1  0  0  0  0
  2 25  1  0  0  0  0
  2 26  1  0  0  0  0
  3 23  1  0  0  0  0
  3 29  1  0  0  0  0
  4 17  1  0  0  0  0
  4 59  1  0  0  0  0
  5 18  1  0  0  0  0
  5 60  1  0  0  0  0
  6 26  1  0  0  0  0
  6 30  1  0  0  0  0
  7 19  1  0  0  0  0
  7 61  1  0  0  0  0
  8 21  1  0  0  0  0
  8 62  1  0  0  0  0
  9 22  1  0  0  0  0
  9 63  1  0  0  0  0
 10 24  1  0  0  0  0
 10 64  1  0  0  0  0
 11 27  1  0  0  0  0
 11 65  1  0  0  0  0
 12 33  1  0  0  0  0
 12 34  1  0  0  0  0
 13 32  2  0  0  0  0
 14 37  1  0  0  0  0
 14 70  1  0  0  0  0
 15 41  1  0  0  0  0
 15 72  1  0  0  0  0
 16 43  1  0  0  0  0
 16 73  1  0  0  0  0
 17 18  1  0  0  0  0
 17 19  1  0  0  0  0
 17 44  1  0  0  0  0
 18 20  1  0  0  0  0
 18 45  1  0  0  0  0
 19 23  1  0  0  0  0
 19 46  1  0  0  0  0
 20 27  1  0  0  0  0
 20 47  1  0  0  0  0
 21 22  1  0  0  0  0
 21 24  1  0  0  0  0
 21 48  1  0  0  0  0
 22 25  1  0  0  0  0
 22 49  1  0  0  0  0
 23 50  1  0  0  0  0
 24 26  1  0  0  0  0
 24 51  1  0  0  0  0
 25 28  1  0  0  0  0
 25 52  1  0  0  0  0
 26 53  1  0  0  0  0
 27 54  1  0  0  0  0
 27 55  1  0  0  0  0
 28 56  1  0  0  0  0
 28 57  1  0  0  0  0
 28 58  1  0  0  0  0
 29 32  1  0  0  0  0
 29 33  2  0  0  0  0
 30 35  1  0  0  0  0
 30 36  2  0  0  0  0
 31 32  1  0  0  0  0
 31 34  1  0  0  0  0
 31 37  2  0  0  0  0
 33 38  1  0  0  0  0
 34 35  2  0  0  0  0
 35 66  1  0  0  0  0
 36 37  1  0  0  0  0
 36 67  1  0  0  0  0
 38 39  2  0  0  0  0
 38 40  1  0  0  0  0
 39 41  1  0  0  0  0
 39 68  1  0  0  0  0
 40 42  2  0  0  0  0
 40 69  1  0  0  0  0
 41 43  2  0  0  0  0
 42 43  1  0  0  0  0
 42 71  1  0  0  0  0
M  END
> <PUBCHEM_COMPOUND_CID>
25080064

> <PUBCHEM_CONFORMER_RMSD>
1

> <PUBCHEM_CONFORMER_DIVERSEORDER>
1
218
195
150
105
206
185
217
125
49
139
189
250
146
54
228
156
152
104
201
85
80
98
32
141
170
236
144
74
107
42
242
183
199
91
155
50
38
149
174
197
60
190
116
230
127
221
220
178
249
31
106
103
84
25
192
132
252
45
231
226
83
214
234
46
39
177
136
78
76
243
143
232
169
137
147
167
219
119
240
63
62
207
111
159
163
246
48
162
175
157
51
205
180
112
122
24
138
82
153
182
108
121
191
67
92
203
244
248
176
86
179
135
94
118
239
12
99
47
131
77
97
124
65
233
172
173
224
223
186
160
165
184
213
187
198
222
247
140
123
41
215
72
161
202
227
61
209
142
166
200
79
145
109
17
26
88
212
89
21
7
251
154
93
70
208
164
151
64
245
204
158
55
8
102
69
29
87
216
130
23
81
33
20
27
44
117
235
238
16
13
3
193
129
15
171
114
95
5
229
100
241
58
133
115
90
34
14
113
134
126
101
237
168
110
194
22
71
75
96
196
2
6
120
210
40
56
59
128
4
9
211
188
68
36
10
18
11
53
57
43
37
225
30
66
73
35
28
148
19
52
181

> <PUBCHEM_MMFF94_PARTIAL_CHARGES>
57
1 -0.56
10 -0.68
11 -0.68
12 -0.16
13 -0.57
14 -0.53
15 -0.53
16 -0.53
17 0.28
18 0.28
19 0.28
2 -0.56
20 0.28
21 0.28
22 0.28
23 0.56
24 0.28
25 0.28
26 0.56
27 0.28
29 0.09
3 -0.36
30 0.08
31 0.09
32 0.47
33 0.05
34 0.08
35 -0.15
36 -0.15
37 0.08
38 0.03
39 -0.15
4 -0.68
40 -0.15
41 0.08
42 -0.15
43 0.08
5 -0.68
59 0.4
6 -0.36
60 0.4
61 0.4
62 0.4
63 0.4
64 0.4
65 0.4
66 0.15
67 0.15
68 0.15
69 0.15
7 -0.68
70 0.45
71 0.15
72 0.45
73 0.45
8 -0.68
9 -0.68

> <PUBCHEM_EFFECTIVE_ROTOR_COUNT>
8.4

> <PUBCHEM_PHARMACOPHORE_FEATURES>
28
1 1 acceptor
1 10 acceptor
1 10 donor
1 11 acceptor
1 11 donor
1 12 acceptor
1 13 acceptor
1 14 donor
1 15 donor
1 16 donor
1 2 acceptor
1 3 acceptor
1 4 acceptor
1 4 donor
1 5 acceptor
1 5 donor
1 6 acceptor
1 7 acceptor
1 7 donor
1 8 acceptor
1 8 donor
1 9 acceptor
1 9 donor
6 1 17 18 19 20 23 rings
6 12 29 31 32 33 34 rings
6 2 21 22 24 25 26 rings
6 30 31 34 35 36 37 rings
6 38 39 40 41 42 43 rings

> <PUBCHEM_HEAVY_ATOM_COUNT>
43

> <PUBCHEM_ATOM_DEF_STEREO_COUNT>
10

> <PUBCHEM_ATOM_UDEF_STEREO_COUNT>
0

> <PUBCHEM_BOND_DEF_STEREO_COUNT>
0

> <PUBCHEM_BOND_UDEF_STEREO_COUNT>
0

> <PUBCHEM_ISOTOPIC_ATOM_COUNT>
0

> <PUBCHEM_COMPONENT_COUNT>
1

> <PUBCHEM_CACTVS_TAUTO_COUNT>
57

> <PUBCHEM_CONFORMER_ID>
017EB10000000001

> <PUBCHEM_MMFF94_ENERGY>
142.5305

> <PUBCHEM_FEATURE_SELFOVERLAP>
142.284

> <PUBCHEM_SHAPE_FINGERPRINT>
10050765 1 18264485075405656921
10319688 140 18337390435573280730
11135926 11 18336538413135535069
11181472 205 18337391527360318729
11408170 132 18115861915815925453
11443803 9 18187919643203282112
11963148 33 18337661005913103763
12120059 20 18338233886046834315
12522641 126 18333729088144706114
12522641 33 18341049735605162308
13150687 139 18335433383118440262
13383665 225 17749959852002880029
13540713 5 18122631556724962960
13617811 41 18260832617752569356
14118638 360 18187083919570981501
14415361 349 18200303455356516615
15276724 80 18335984160902585365
15351334 14 18188478108546195557
15352257 5 17846785122070882773
15361156 5 18335423470260184539
15705408 1 17752783333527689414
15776043 110 11383839250763181501
17492 89 18194393390534484347
18365409 1 18118412975717526574
19304144 158 17822835542088101276
21344244 246 18265341612786849326
22311459 1 18336825385470652385
23522609 53 18198084503083978369
24771750 20 17389962367705080373
255183 451 18196934375187334718
27425 322 18196932403987217900
3117164 225 9583226228538734004
3504750 166 16023367885063455986
3886686 26 11161259495064606436
444735 86 18410572864328803038
504579 68 18409444778826659735
56611832 218 17624405776695915599
59755656 215 18335701667396139721
6058803 2 17975421209384220272

> <PUBCHEM_SHAPE_MULTIPOLES>
791.01
21.63
5.21
1.75
35.82
3.02
-0.29
1.49
-10.91
-6.97
1.21
-1.66
1.04
-2.98

> <PUBCHEM_SHAPE_SELFOVERLAP>
1726.3

> <PUBCHEM_SHAPE_VOLUME>
422.1

> <PUBCHEM_COORDINATE_TYPE>
2
5
10

$$$$
