2733956
  -OEChem-03052615053D

 27 27  0     0  0  0  0  0  0999 V2000
    1.5289   -2.1378    0.6257 O   0  0  0  0  0  0  0  0  0  0  0  0
    3.0200    0.1725    0.2950 O   0  0  0  0  0  0  0  0  0  0  0  0
    1.7323    2.5831   -0.1534 O   0  0  0  0  0  0  0  0  0  0  0  0
   -3.1061   -0.7965   -0.4064 O   0  0  0  0  0  0  0  0  0  0  0  0
   -3.2585    1.3562    0.3945 O   0  0  0  0  0  0  0  0  0  0  0  0
    0.9109   -0.9438    0.4051 C   0  0  0  0  0  0  0  0  0  0  0  0
   -1.1269    0.3229    0.1228 C   0  0  0  0  0  0  0  0  0  0  0  0
    1.6587    0.2216    0.2372 C   0  0  0  0  0  0  0  0  0  0  0  0
   -0.4819   -0.8932    0.3479 C   0  0  0  0  0  0  0  0  0  0  0  0
    1.0137    1.4378    0.0124 C   0  0  0  0  0  0  0  0  0  0  0  0
   -0.3791    1.4884   -0.0448 C   0  0  0  0  0  0  0  0  0  0  0  0
   -2.5792    0.3754    0.0635 C   0  0  0  0  0  0  0  0  0  0  0  0
    1.8668   -2.9144   -0.5218 C   0  0  0  0  0  0  0  0  0  0  0  0
    3.7324    0.5959   -0.8652 C   0  0  0  0  0  0  0  0  0  0  0  0
   -4.5320   -0.8682   -0.5125 C   0  0  0  0  0  0  0  0  0  0  0  0
   -1.0450   -1.8118    0.4945 H   0  0  0  0  0  0  0  0  0  0  0  0
   -0.8792    2.4375   -0.2234 H   0  0  0  0  0  0  0  0  0  0  0  0
    1.1197    3.3242   -0.2997 H   0  0  0  0  0  0  0  0  0  0  0  0
    2.5583   -2.3668   -1.1697 H   0  0  0  0  0  0  0  0  0  0  0  0
    0.9649   -3.1861   -1.0797 H   0  0  0  0  0  0  0  0  0  0  0  0
    2.3573   -3.8309   -0.1828 H   0  0  0  0  0  0  0  0  0  0  0  0
    4.0318    1.6424   -0.7604 H   0  0  0  0  0  0  0  0  0  0  0  0
    3.1505    0.4551   -1.7828 H   0  0  0  0  0  0  0  0  0  0  0  0
    4.6404   -0.0095   -0.9419 H   0  0  0  0  0  0  0  0  0  0  0  0
   -4.7955   -1.8562   -0.8988 H   0  0  0  0  0  0  0  0  0  0  0  0
   -4.8968   -0.1079   -1.2095 H   0  0  0  0  0  0  0  0  0  0  0  0
   -4.9901   -0.7409    0.4729 H   0  0  0  0  0  0  0  0  0  0  0  0
  1  6  1  0  0  0  0
  1 13  1  0  0  0  0
  2  8  1  0  0  0  0
  2 14  1  0  0  0  0
  3 10  1  0  0  0  0
  3 18  1  0  0  0  0
  4 12  1  0  0  0  0
  4 15  1  0  0  0  0
  5 12  2  0  0  0  0
  6  8  1  0  0  0  0
  6  9  2  0  0  0  0
  7  9  1  0  0  0  0
  7 11  2  0  0  0  0
  7 12  1  0  0  0  0
  8 10  2  0  0  0  0
  9 16  1  0  0  0  0
 10 11  1  0  0  0  0
 11 17  1  0  0  0  0
 13 19  1  0  0  0  0
 13 20  1  0  0  0  0
 13 21  1  0  0  0  0
 14 22  1  0  0  0  0
 14 23  1  0  0  0  0
 14 24  1  0  0  0  0
 15 25  1  0  0  0  0
 15 26  1  0  0  0  0
 15 27  1  0  0  0  0
M  END
> <PUBCHEM_COMPOUND_CID>
2733956

> <PUBCHEM_CONFORMER_RMSD>
0.6

> <PUBCHEM_CONFORMER_DIVERSEORDER>
1
5
10
7
4
9
8
6
2
3

> <PUBCHEM_MMFF94_PARTIAL_CHARGES>
18
1 -0.36
10 0.08
11 -0.15
12 0.63
13 0.28
14 0.28
15 0.28
16 0.15
17 0.15
18 0.45
2 -0.36
3 -0.53
4 -0.43
5 -0.57
6 0.08
7 0.09
8 0.08
9 -0.15

> <PUBCHEM_EFFECTIVE_ROTOR_COUNT>
4

> <PUBCHEM_PHARMACOPHORE_FEATURES>
5
1 1 acceptor
1 2 acceptor
1 3 donor
1 5 acceptor
6 6 7 8 9 10 11 rings

> <PUBCHEM_HEAVY_ATOM_COUNT>
15

> <PUBCHEM_ATOM_DEF_STEREO_COUNT>
0

> <PUBCHEM_ATOM_UDEF_STEREO_COUNT>
0

> <PUBCHEM_BOND_DEF_STEREO_COUNT>
0

> <PUBCHEM_BOND_UDEF_STEREO_COUNT>
0

> <PUBCHEM_ISOTOPIC_ATOM_COUNT>
0

> <PUBCHEM_COMPONENT_COUNT>
1

> <PUBCHEM_CACTVS_TAUTO_COUNT>
3

> <PUBCHEM_CONFORMER_ID>
0029B78400000001

> <PUBCHEM_MMFF94_ENERGY>
62.7633

> <PUBCHEM_FEATURE_SELFOVERLAP>
25.376

> <PUBCHEM_SHAPE_FINGERPRINT>
10967382 1 18409729598891875170
10980938 120 18409729534514890474
11471102 20 18335978735593752453
11806522 49 18410852209170364607
12932764 1 17346302805037393195
13380535 76 18334012830299504002
13380536 305 18265332983411282244
14251717 144 18409163328950021463
14576447 43 18270669983056878583
14911166 2 18335988665800818516
14993402 34 18334861662013592708
15442244 35 18196653982578864329
15757776 16 18335411383341115639
16945 1 18409451396690904104
17990270 104 18338231570616018315
19021347 11 18409728469394818386
193761 8 17832706769004281168
20201158 50 18333730230162460131
20588541 1 18333456438829325504
20645476 183 17460049581033807446
20645477 70 18409156711186348103
20871998 22 18196368109191911946
21501502 16 18266459810835576827
21524375 3 18187926256798412704
2255824 54 18337672034945527268
22713019 99 18342749545857410454
2334 1 17904766931042093168
23402539 116 18341611499925648452
23402655 69 18409158897245379181
23419403 2 14281258002954263009
23552423 10 18117843187801343778
23598291 2 18127976308807041883
25 1 18261116278856252228
2748010 2 18048025268931916612
3060560 45 18337950198728929662
3071541 250 18122355570884793310
528886 8 18336825385496298472
58051976 378 18341046410667316831
63268167 104 18337393729849671785
7364860 26 18342172267312879778
7832392 63 18269276755552991961
81228 2 17256518622242768962

> <PUBCHEM_SHAPE_MULTIPOLES>
279.35
6.16
2.48
0.75
4.95
0.9
-0.05
0.43
-1.41
-1.66
-0.17
-0.15
0.1
-0.39

> <PUBCHEM_SHAPE_SELFOVERLAP>
580.064

> <PUBCHEM_SHAPE_VOLUME>
160.9

> <PUBCHEM_COORDINATE_TYPE>
2
5
10

$$$$
