101392
  -OEChem-02172602493D

 10  9  0     0  0  0  0  0  0999 V2000
   -2.4014    0.0422    0.0012 O   0  0  0  0  0  0  0  0  0  0  0  0
   -0.0029    1.2996   -0.0044 O   0  0  0  0  0  0  0  0  0  0  0  0
    2.3498   -0.0063   -0.0165 O   0  0  0  0  0  0  0  0  0  0  0  0
   -1.2486   -0.7711   -0.0175 C   0  0  0  0  0  0  0  0  0  0  0  0
   -0.0081    0.0781    0.0221 C   0  0  0  0  0  0  0  0  0  0  0  0
    1.3111   -0.6424    0.0151 C   0  0  0  0  0  0  0  0  0  0  0  0
   -1.2541   -1.3807   -0.9253 H   0  0  0  0  0  0  0  0  0  0  0  0
   -1.2683   -1.4182    0.8633 H   0  0  0  0  0  0  0  0  0  0  0  0
    1.2495   -1.7416    0.0397 H   0  0  0  0  0  0  0  0  0  0  0  0
   -2.4152    0.5506   -0.8277 H   0  0  0  0  0  0  0  0  0  0  0  0
  1  4  1  0  0  0  0
  1 10  1  0  0  0  0
  2  5  2  0  0  0  0
  3  6  2  0  0  0  0
  4  5  1  0  0  0  0
  4  7  1  0  0  0  0
  4  8  1  0  0  0  0
  5  6  1  0  0  0  0
  6  9  1  0  0  0  0
M  END
> <PUBCHEM_COMPOUND_CID>
101392

> <PUBCHEM_CONFORMER_RMSD>
0.4

> <PUBCHEM_CONFORMER_DIVERSEORDER>
1
7
4
9
8
5
6
3
10
2

> <PUBCHEM_MMFF94_PARTIAL_CHARGES>
8
1 -0.68
10 0.4
2 -0.57
3 -0.57
4 0.34
5 0.51
6 0.51
9 0.06

> <PUBCHEM_EFFECTIVE_ROTOR_COUNT>
2

> <PUBCHEM_PHARMACOPHORE_FEATURES>
4
1 1 acceptor
1 1 donor
1 2 acceptor
1 3 acceptor

> <PUBCHEM_HEAVY_ATOM_COUNT>
6

> <PUBCHEM_ATOM_DEF_STEREO_COUNT>
0

> <PUBCHEM_ATOM_UDEF_STEREO_COUNT>
0

> <PUBCHEM_BOND_DEF_STEREO_COUNT>
0

> <PUBCHEM_BOND_UDEF_STEREO_COUNT>
0

> <PUBCHEM_ISOTOPIC_ATOM_COUNT>
0

> <PUBCHEM_COMPONENT_COUNT>
1

> <PUBCHEM_CACTVS_TAUTO_COUNT>
3

> <PUBCHEM_CONFORMER_ID>
00018C1000000001

> <PUBCHEM_MMFF94_ENERGY>
-0.2536

> <PUBCHEM_FEATURE_SELFOVERLAP>
20.311

> <PUBCHEM_SHAPE_FINGERPRINT>
139733 1 9223232948649731874
16714656 1 18413109441801194206
20096714 4 18338799047422524579
29004967 10 18335708255627863634
5460574 1 9295291637951896995

> <PUBCHEM_SHAPE_MULTIPOLES>
105.87
2.77
0.99
0.57
0.08
0.18
0
-0.28
0.01
0.04
0
0
-0.03
-0.01

> <PUBCHEM_SHAPE_SELFOVERLAP>
194.073

> <PUBCHEM_SHAPE_VOLUME>
66.5

> <PUBCHEM_COORDINATE_TYPE>
2
5
10

$$$$
