11956489
  -OEChem-02172602463D

 66 70  0     0  0  0  0  0  0999 V2000
    3.8872   -4.1556   -0.2758 F   0  0  0  0  0  0  0  0  0  0  0  0
    5.3906   -3.5154   -1.7020 F   0  0  0  0  0  0  0  0  0  0  0  0
    5.7853   -3.3644    0.4311 F   0  0  0  0  0  0  0  0  0  0  0  0
    0.3169   -1.0163    0.7290 O   0  0  0  0  0  0  0  0  0  0  0  0
    7.2884    0.1170   -0.1901 N   0  0  0  0  0  0  0  0  0  0  0  0
    8.8521    1.8975    1.3141 N   0  0  0  0  0  0  0  0  0  0  0  0
    0.3342    0.9820   -0.5004 N   0  0  0  0  0  0  0  0  0  0  0  0
   -1.3360    2.5778   -1.0076 N   0  0  0  0  0  0  0  0  0  0  0  0
   -4.9119    2.6930   -0.0683 N   0  0  0  0  0  0  0  0  0  0  0  0
   -6.0801    0.6663    0.1159 N   0  0  0  0  0  0  0  0  0  0  0  0
   -7.2479    2.7742    0.1394 N   0  0  0  0  0  0  0  0  0  0  0  0
   -8.1515   -3.4731    1.0986 N   0  0  0  0  0  0  0  0  0  0  0  0
    5.0509   -0.6866   -0.7052 C   0  0  0  0  0  0  0  0  0  0  0  0
    6.5222   -0.8437   -0.9721 C   0  0  0  0  0  0  0  0  0  0  0  0
    4.2483   -1.8002   -0.4879 C   0  0  0  0  0  0  0  0  0  0  0  0
    4.5106    0.5938   -0.6801 C   0  0  0  0  0  0  0  0  0  0  0  0
    2.8857   -1.6309   -0.2417 C   0  0  0  0  0  0  0  0  0  0  0  0
    2.3356   -0.3495   -0.2150 C   0  0  0  0  0  0  0  0  0  0  0  0
    3.1480    0.7630   -0.4342 C   0  0  0  0  0  0  0  0  0  0  0  0
    4.8149   -3.1818   -0.5100 C   0  0  0  0  0  0  0  0  0  0  0  0
    7.3098    0.0680    1.2077 C   0  0  0  0  0  0  0  0  0  0  0  0
    8.0867    1.0867   -0.8058 C   0  0  0  0  0  0  0  0  0  0  0  0
    8.0538    0.9278    1.9298 C   0  0  0  0  0  0  0  0  0  0  0  0
    8.8308    1.9464   -0.0837 C   0  0  0  0  0  0  0  0  0  0  0  0
    0.9154   -0.1721    0.0431 C   0  0  0  0  0  0  0  0  0  0  0  0
   -1.0064    1.4275   -0.3956 C   0  0  0  0  0  0  0  0  0  0  0  0
    9.6170    2.8596    2.0956 C   0  0  0  0  0  0  0  0  0  0  0  0
   -3.5810    2.2508   -0.1722 C   0  0  0  0  0  0  0  0  0  0  0  0
   -2.6254    2.9630   -0.8791 C   0  0  0  0  0  0  0  0  0  0  0  0
   -1.8697    0.6379    0.3328 C   0  0  0  0  0  0  0  0  0  0  0  0
   -3.1877    1.0671    0.4423 C   0  0  0  0  0  0  0  0  0  0  0  0
   -2.9876    4.2415   -1.5627 C   0  0  0  0  0  0  0  0  0  0  0  0
   -6.1398    2.0113    0.0692 C   0  0  0  0  0  0  0  0  0  0  0  0
   -7.2716    0.0472    0.2475 C   0  0  0  0  0  0  0  0  0  0  0  0
   -7.2110   -1.3939    0.2989 C   0  0  0  0  0  0  0  0  0  0  0  0
   -8.4771    0.7137    0.3306 C   0  0  0  0  0  0  0  0  0  0  0  0
   -8.4035    2.0903    0.2703 C   0  0  0  0  0  0  0  0  0  0  0  0
   -6.2083   -2.0943   -0.3630 C   0  0  0  0  0  0  0  0  0  0  0  0
   -8.1503   -2.1242    1.0096 C   0  0  0  0  0  0  0  0  0  0  0  0
   -6.1761   -3.4828   -0.2951 C   0  0  0  0  0  0  0  0  0  0  0  0
   -7.1616   -4.1190    0.4422 C   0  0  0  0  0  0  0  0  0  0  0  0
    6.6821   -0.7009   -2.0494 H   0  0  0  0  0  0  0  0  0  0  0  0
    6.9123   -1.8387   -0.7468 H   0  0  0  0  0  0  0  0  0  0  0  0
    5.1175    1.4769   -0.8575 H   0  0  0  0  0  0  0  0  0  0  0  0
    2.2506   -2.4977   -0.0758 H   0  0  0  0  0  0  0  0  0  0  0  0
    2.7727    1.7810   -0.3894 H   0  0  0  0  0  0  0  0  0  0  0  0
    6.6976   -0.7010    1.6628 H   0  0  0  0  0  0  0  0  0  0  0  0
    8.0584    1.1031   -1.8882 H   0  0  0  0  0  0  0  0  0  0  0  0
    8.0846    0.9162    3.0122 H   0  0  0  0  0  0  0  0  0  0  0  0
    9.4493    2.7130   -0.5336 H   0  0  0  0  0  0  0  0  0  0  0  0
    0.9000    1.5932   -1.0819 H   0  0  0  0  0  0  0  0  0  0  0  0
   10.5177    3.1803    1.5604 H   0  0  0  0  0  0  0  0  0  0  0  0
    9.9418    2.4288    3.0493 H   0  0  0  0  0  0  0  0  0  0  0  0
    9.0062    3.7438    2.3056 H   0  0  0  0  0  0  0  0  0  0  0  0
   -1.6399   -0.2810    0.8441 H   0  0  0  0  0  0  0  0  0  0  0  0
   -3.8630    0.4730    1.0492 H   0  0  0  0  0  0  0  0  0  0  0  0
   -5.0455    3.6899   -0.2030 H   0  0  0  0  0  0  0  0  0  0  0  0
   -2.1345    4.6379   -2.1243 H   0  0  0  0  0  0  0  0  0  0  0  0
   -3.2816    5.0003   -0.8306 H   0  0  0  0  0  0  0  0  0  0  0  0
   -3.8040    4.0840   -2.2750 H   0  0  0  0  0  0  0  0  0  0  0  0
   -9.4399    0.2264    0.4156 H   0  0  0  0  0  0  0  0  0  0  0  0
   -9.2992    2.7001    0.3220 H   0  0  0  0  0  0  0  0  0  0  0  0
   -5.4442   -1.5872   -0.9468 H   0  0  0  0  0  0  0  0  0  0  0  0
   -8.9526   -1.6589    1.5739 H   0  0  0  0  0  0  0  0  0  0  0  0
   -5.4052   -4.0493   -0.8047 H   0  0  0  0  0  0  0  0  0  0  0  0
   -7.1813   -5.2005    0.5260 H   0  0  0  0  0  0  0  0  0  0  0  0
  1 20  1  0  0  0  0
  2 20  1  0  0  0  0
  3 20  1  0  0  0  0
  4 25  2  0  0  0  0
  5 14  1  0  0  0  0
  5 21  1  0  0  0  0
  5 22  1  0  0  0  0
  6 23  1  0  0  0  0
  6 24  1  0  0  0  0
  6 27  1  0  0  0  0
  7 25  1  0  0  0  0
  7 26  1  0  0  0  0
  7 51  1  0  0  0  0
  8 26  2  0  0  0  0
  8 29  1  0  0  0  0
  9 28  1  0  0  0  0
  9 33  1  0  0  0  0
  9 57  1  0  0  0  0
 10 33  1  0  0  0  0
 10 34  2  0  0  0  0
 11 33  2  0  0  0  0
 11 37  1  0  0  0  0
 12 39  1  0  0  0  0
 12 41  2  0  0  0  0
 13 14  1  0  0  0  0
 13 15  2  0  0  0  0
 13 16  1  0  0  0  0
 14 42  1  0  0  0  0
 14 43  1  0  0  0  0
 15 17  1  0  0  0  0
 15 20  1  0  0  0  0
 16 19  2  0  0  0  0
 16 44  1  0  0  0  0
 17 18  2  0  0  0  0
 17 45  1  0  0  0  0
 18 19  1  0  0  0  0
 18 25  1  0  0  0  0
 19 46  1  0  0  0  0
 21 23  2  0  0  0  0
 21 47  1  0  0  0  0
 22 24  2  0  0  0  0
 22 48  1  0  0  0  0
 23 49  1  0  0  0  0
 24 50  1  0  0  0  0
 26 30  1  0  0  0  0
 27 52  1  0  0  0  0
 27 53  1  0  0  0  0
 27 54  1  0  0  0  0
 28 29  2  0  0  0  0
 28 31  1  0  0  0  0
 29 32  1  0  0  0  0
 30 31  2  0  0  0  0
 30 55  1  0  0  0  0
 31 56  1  0  0  0  0
 32 58  1  0  0  0  0
 32 59  1  0  0  0  0
 32 60  1  0  0  0  0
 34 35  1  0  0  0  0
 34 36  1  0  0  0  0
 35 38  1  0  0  0  0
 35 39  2  0  0  0  0
 36 37  2  0  0  0  0
 36 61  1  0  0  0  0
 37 62  1  0  0  0  0
 38 40  2  0  0  0  0
 38 63  1  0  0  0  0
 39 64  1  0  0  0  0
 40 41  1  0  0  0  0
 40 65  1  0  0  0  0
 41 66  1  0  0  0  0
M  END
> <PUBCHEM_COMPOUND_CID>
11956489

> <PUBCHEM_CONFORMER_RMSD>
1.2

> <PUBCHEM_CONFORMER_DIVERSEORDER>
1
13
66
78
62
30
58
41
22
80
15
51
35
61
81
52
75
37
69
60
36
63
48
7
19
67
56
59
45
23
47
9
17
27
43
57
26
38
25
39
28
12
50
64
77
74
16
40
42
73
53
49
5
4
34
54
70
20
29
71
18
79
3
76
33
6
31
55
72
65
21
14
68
11
46
24
10
32
2
44
8

> <PUBCHEM_MMFF94_PARTIAL_CHARGES>
57
1 -0.34
10 -0.62
11 -0.62
12 -0.62
13 -0.14
14 0.51
15 -0.14
16 -0.15
17 -0.15
18 0.09
19 -0.15
2 -0.34
20 1.16
21 -0.05
22 -0.05
23 -0.05
24 -0.05
25 0.54
26 0.43
27 0.37
28 0.1
29 0.17
3 -0.34
30 -0.15
31 -0.15
32 0.14
33 0.72
34 0.31
36 -0.15
37 0.16
38 -0.15
39 0.16
4 -0.57
40 -0.15
41 0.16
44 0.15
45 0.15
46 0.15
47 0.15
48 0.15
49 0.15
5 -0.57
50 0.15
51 0.37
55 0.15
56 0.15
57 0.4
6 -0.57
61 0.15
62 0.15
63 0.15
64 0.15
65 0.15
66 0.15
7 -0.55
8 -0.62
9 -0.6

> <PUBCHEM_EFFECTIVE_ROTOR_COUNT>
9.4

> <PUBCHEM_PHARMACOPHORE_FEATURES>
13
1 10 acceptor
1 12 acceptor
1 4 acceptor
1 5 cation
1 6 cation
1 7 donor
1 9 donor
4 9 10 11 33 cation
6 10 11 33 34 36 37 rings
6 12 35 38 39 40 41 rings
6 13 15 16 17 18 19 rings
6 5 6 21 22 23 24 rings
6 8 26 28 29 30 31 rings

> <PUBCHEM_HEAVY_ATOM_COUNT>
41

> <PUBCHEM_ATOM_DEF_STEREO_COUNT>
0

> <PUBCHEM_ATOM_UDEF_STEREO_COUNT>
0

> <PUBCHEM_BOND_DEF_STEREO_COUNT>
0

> <PUBCHEM_BOND_UDEF_STEREO_COUNT>
0

> <PUBCHEM_ISOTOPIC_ATOM_COUNT>
0

> <PUBCHEM_COMPONENT_COUNT>
1

> <PUBCHEM_CACTVS_TAUTO_COUNT>
12

> <PUBCHEM_CONFORMER_ID>
00B6710900000001

> <PUBCHEM_MMFF94_ENERGY>
143.163

> <PUBCHEM_FEATURE_SELFOVERLAP>
65.976

> <PUBCHEM_SHAPE_FINGERPRINT>
10055352 69 17703219737170028176
10391435 84 18408601449118423653
11621639 183 15696900068283895057
117089 54 18117289267083281627
11973864 47 18127685140807102280
13383665 225 18188227467730358022
13383668 251 18336822082461817276
1361 4 18337956692698927647
13782708 43 18272089353725846119
13811026 1 18411140220844758598
14168556 18 18410292544840511924
14400156 96 17023751268679618900
15145343 39 18339630240071153607
15728490 51 18409450297543221365
17686467 74 18410008875257410641
18608769 82 18409446981596834205
19841028 212 18337392622096684818
21130935 74 18267869389237975442
21795232 338 18060133293383566871
3146121 3 18265053707231338012
335507 130 18337394937146834471
395649 100 18333733546394300643
4149490 64 18339921525095630866
437795 160 18335134336576057384
4403749 210 18342452626325964135
5109719 28 18410582799490667744
9962374 69 17894633703106149580

> <PUBCHEM_SHAPE_MULTIPOLES>
776.22
35.56
5.17
1.23
12.53
2.82
-0.29
0.24
-12
-5.98
0.79
2.49
-0.4
4.58

> <PUBCHEM_SHAPE_SELFOVERLAP>
1706.818

> <PUBCHEM_SHAPE_VOLUME>
418

> <PUBCHEM_COORDINATE_TYPE>
2
5
10

$$$$
