522774
  -OEChem-02172602473D

 41 40  0     0  0  0  0  0  0999 V2000
   -4.8186    0.1650    0.0050 Si  0  0  0  0  0  0  0  0  0  0  0  0
   -3.2103    0.6313    0.0078 O   0  0  0  0  0  0  0  0  0  0  0  0
   -2.1794   -1.4376   -0.0557 O   0  0  0  0  0  0  0  0  0  0  0  0
    2.9228   -0.2896    0.1178 C   0  0  0  0  0  0  0  0  0  0  0  0
    1.6767    0.5953    0.0390 C   0  0  0  0  0  0  0  0  0  0  0  0
    4.2353    0.4967    0.0400 C   0  0  0  0  0  0  0  0  0  0  0  0
    0.3982   -0.2502    0.0303 C   0  0  0  0  0  0  0  0  0  0  0  0
    5.5170   -0.3418    0.0284 C   0  0  0  0  0  0  0  0  0  0  0  0
   -0.8670    0.6064   -0.0150 C   0  0  0  0  0  0  0  0  0  0  0  0
    6.7898    0.4933   -0.1125 C   0  0  0  0  0  0  0  0  0  0  0  0
   -2.1392   -0.2143   -0.0345 C   0  0  0  0  0  0  0  0  0  0  0  0
   -5.2061   -0.9230    1.4892 C   0  0  0  0  0  0  0  0  0  0  0  0
   -5.9553    1.6625    0.0431 C   0  0  0  0  0  0  0  0  0  0  0  0
   -5.1989   -0.8179   -1.5555 C   0  0  0  0  0  0  0  0  0  0  0  0
    8.0350   -0.3759   -0.0274 C   0  0  0  0  0  0  0  0  0  0  0  0
    2.9048   -0.8658    1.0509 H   0  0  0  0  0  0  0  0  0  0  0  0
    2.9004   -1.0170   -0.7033 H   0  0  0  0  0  0  0  0  0  0  0  0
    1.7148    1.2068   -0.8703 H   0  0  0  0  0  0  0  0  0  0  0  0
    1.6617    1.2831    0.8928 H   0  0  0  0  0  0  0  0  0  0  0  0
    4.2179    1.1129   -0.8683 H   0  0  0  0  0  0  0  0  0  0  0  0
    4.2771    1.1953    0.8852 H   0  0  0  0  0  0  0  0  0  0  0  0
    0.3733   -0.8870    0.9237 H   0  0  0  0  0  0  0  0  0  0  0  0
    0.4124   -0.9263   -0.8338 H   0  0  0  0  0  0  0  0  0  0  0  0
    5.4661   -1.0634   -0.7962 H   0  0  0  0  0  0  0  0  0  0  0  0
    5.5630   -0.9255    0.9562 H   0  0  0  0  0  0  0  0  0  0  0  0
   -0.8552    1.2311   -0.9153 H   0  0  0  0  0  0  0  0  0  0  0  0
   -0.8954    1.2566    0.8669 H   0  0  0  0  0  0  0  0  0  0  0  0
    6.7807    1.0251   -1.0708 H   0  0  0  0  0  0  0  0  0  0  0  0
    6.8265    1.2505    0.6792 H   0  0  0  0  0  0  0  0  0  0  0  0
   -4.9899   -0.3914    2.4205 H   0  0  0  0  0  0  0  0  0  0  0  0
   -6.2628   -1.2063    1.4923 H   0  0  0  0  0  0  0  0  0  0  0  0
   -4.6065   -1.8376    1.4682 H   0  0  0  0  0  0  0  0  0  0  0  0
   -5.7763    2.3026   -0.8257 H   0  0  0  0  0  0  0  0  0  0  0  0
   -7.0040    1.3513    0.0316 H   0  0  0  0  0  0  0  0  0  0  0  0
   -5.7812    2.2533    0.9472 H   0  0  0  0  0  0  0  0  0  0  0  0
   -4.9771   -0.2224   -2.4460 H   0  0  0  0  0  0  0  0  0  0  0  0
   -4.6002   -1.7324   -1.5944 H   0  0  0  0  0  0  0  0  0  0  0  0
   -6.2559   -1.0986   -1.5833 H   0  0  0  0  0  0  0  0  0  0  0  0
    8.9341    0.2392   -0.1333 H   0  0  0  0  0  0  0  0  0  0  0  0
    8.0427   -1.1287   -0.8221 H   0  0  0  0  0  0  0  0  0  0  0  0
    8.0885   -0.8924    0.9363 H   0  0  0  0  0  0  0  0  0  0  0  0
  1  2  1  0  0  0  0
  1 12  1  0  0  0  0
  1 13  1  0  0  0  0
  1 14  1  0  0  0  0
  2 11  1  0  0  0  0
  3 11  2  0  0  0  0
  4  5  1  0  0  0  0
  4  6  1  0  0  0  0
  4 16  1  0  0  0  0
  4 17  1  0  0  0  0
  5  7  1  0  0  0  0
  5 18  1  0  0  0  0
  5 19  1  0  0  0  0
  6  8  1  0  0  0  0
  6 20  1  0  0  0  0
  6 21  1  0  0  0  0
  7  9  1  0  0  0  0
  7 22  1  0  0  0  0
  7 23  1  0  0  0  0
  8 10  1  0  0  0  0
  8 24  1  0  0  0  0
  8 25  1  0  0  0  0
  9 11  1  0  0  0  0
  9 26  1  0  0  0  0
  9 27  1  0  0  0  0
 10 15  1  0  0  0  0
 10 28  1  0  0  0  0
 10 29  1  0  0  0  0
 12 30  1  0  0  0  0
 12 31  1  0  0  0  0
 12 32  1  0  0  0  0
 13 33  1  0  0  0  0
 13 34  1  0  0  0  0
 13 35  1  0  0  0  0
 14 36  1  0  0  0  0
 14 37  1  0  0  0  0
 14 38  1  0  0  0  0
 15 39  1  0  0  0  0
 15 40  1  0  0  0  0
 15 41  1  0  0  0  0
M  END
> <PUBCHEM_COMPOUND_CID>
522774

> <PUBCHEM_CONFORMER_RMSD>
1

> <PUBCHEM_CONFORMER_DIVERSEORDER>
1
83
112
122
85
50
104
138
74
60
18
139
3
45
46
48
56
88
124
126
121
106
120
37
9
96
118
49
4
97
8
131
141
54
67
65
21
14
143
101
70
6
44
99
16
62
93
133
102
119
135
7
115
11
66
5
13
71
24
32
128
52
59
77
117
20
113
103
61
64
134
10
47
31
35
78
123
136
129
17
69
42
34
73
144
130
43
91
58
2
92
89
15
22
114
30
82
100
79
105
26
12
87
98
68
95
28
108
53
39
75
38
76
81
109
19
36
127
33
110
51
90
142
140
25
29
111
72
132
94
137
27
63
107
40
116
80
41
84
86
57
125
55
23

> <PUBCHEM_MMFF94_PARTIAL_CHARGES>
8
1 0.54
11 0.66
12 -0.08
13 -0.08
14 -0.08
2 -0.45
3 -0.57
9 0.06

> <PUBCHEM_EFFECTIVE_ROTOR_COUNT>
9

> <PUBCHEM_PHARMACOPHORE_FEATURES>
2
1 15 hydrophobe
1 3 acceptor

> <PUBCHEM_HEAVY_ATOM_COUNT>
15

> <PUBCHEM_ATOM_DEF_STEREO_COUNT>
0

> <PUBCHEM_ATOM_UDEF_STEREO_COUNT>
0

> <PUBCHEM_BOND_DEF_STEREO_COUNT>
0

> <PUBCHEM_BOND_UDEF_STEREO_COUNT>
0

> <PUBCHEM_ISOTOPIC_ATOM_COUNT>
0

> <PUBCHEM_COMPONENT_COUNT>
1

> <PUBCHEM_CACTVS_TAUTO_COUNT>
1

> <PUBCHEM_CONFORMER_ID>
0007FA1600000001

> <PUBCHEM_MMFF94_ENERGY>
2.1217

> <PUBCHEM_FEATURE_SELFOVERLAP>
10.148

> <PUBCHEM_SHAPE_FINGERPRINT>
10968037 39 17748545943840084844
11315181 36 17821731658894968129
12091667 2 18342176670060487945
13288520 33 17703785951619873575
13533116 47 17489591105067960358
1420 363 18333736823100698794
14251764 18 18410008837066343858
14251764 46 18410575088958046214
17093844 174 18342453742864635993
17834076 25 18060138739106731088
19489759 90 14405186162445480819
20281389 69 18260264145014036756
20621476 8 18336265652710752180
220451 1 16587740932182602568
22224240 67 15913322490939530006
23035841 295 18407759236154594970
23402539 116 18201715154992522341
23521765 1 18342175562196347880
23559900 14 17632568370726154913
33684 2 18412824672848259557
42788 4 18413107269164914296
4463277 17 18408886239578187480
57583515 80 18341894090934362360
59755656 520 17022620896740805034
8209 1 18412825781060656700

> <PUBCHEM_SHAPE_MULTIPOLES>
315.17
21.51
1.15
0.95
34.2
0.1
-0.04
0.54
-0.31
-1.62
0.02
-1.67
-0.26
-0.02

> <PUBCHEM_SHAPE_SELFOVERLAP>
560.532

> <PUBCHEM_SHAPE_VOLUME>
205.2

> <PUBCHEM_COORDINATE_TYPE>
2
5
10

$$$$
