102213076
  -OEChem-02172602513D

 54 57  0     1  0  0  0  0  0999 V2000
   -3.8482   -0.0179    2.2019 O   0  0  0  0  0  0  0  0  0  0  0  0
   -2.4938    1.0110    0.2348 C   0  0  2  0  0  0  0  0  0  0  0  0
   -2.4550   -0.2432   -0.7557 C   0  0  2  0  0  0  0  0  0  0  0  0
   -3.9640   -0.4947   -0.3445 C   0  0  1  0  0  0  0  0  0  0  0  0
   -3.5239    0.1183    1.0471 C   0  0  0  0  0  0  0  0  0  0  0  0
   -3.1843    2.2097   -0.4484 C   0  0  0  0  0  0  0  0  0  0  0  0
   -4.9166    0.4264   -1.1137 C   0  0  0  0  0  0  0  0  0  0  0  0
   -4.6640    1.8914   -0.7252 C   0  0  0  0  0  0  0  0  0  0  0  0
   -1.2210    1.3856    0.9686 C   0  0  0  0  0  0  0  0  0  0  0  0
   -1.3624   -1.3943   -0.5036 C   0  0  0  0  0  0  0  0  0  0  0  0
   -0.3030    2.2117    0.0599 C   0  0  0  0  0  0  0  0  0  0  0  0
   -1.6114   -2.3995    0.4308 C   0  0  0  0  0  0  0  0  0  0  0  0
   -0.1657   -1.3891   -1.2203 C   0  0  0  0  0  0  0  0  0  0  0  0
    1.0407    2.5598    0.7066 C   0  0  0  0  0  0  0  0  0  0  0  0
   -0.6638   -3.3996    0.6485 C   0  0  0  0  0  0  0  0  0  0  0  0
    0.7820   -2.3890   -1.0026 C   0  0  0  0  0  0  0  0  0  0  0  0
    0.5329   -3.3944   -0.0682 C   0  0  0  0  0  0  0  0  0  0  0  0
    1.9590    3.3060   -0.2199 C   0  0  0  0  0  0  0  0  0  0  0  0
    1.5467   -4.4632    0.1653 C   0  0  0  0  0  0  0  0  0  0  0  0
    3.1385    2.8213   -0.6385 C   0  0  0  0  0  0  0  0  0  0  0  0
    3.6988    1.5133   -0.2613 C   0  0  0  0  0  0  0  0  0  0  0  0
    3.9786    0.5647   -1.2447 C   0  0  0  0  0  0  0  0  0  0  0  0
    3.9498    1.2227    1.0796 C   0  0  0  0  0  0  0  0  0  0  0  0
    4.5094   -0.6749   -0.8873 C   0  0  0  0  0  0  0  0  0  0  0  0
    4.4805   -0.0167    1.4371 C   0  0  0  0  0  0  0  0  0  0  0  0
    4.7602   -0.9655    0.4537 C   0  0  0  0  0  0  0  0  0  0  0  0
   -2.3778    0.0663   -1.8103 H   0  0  0  0  0  0  0  0  0  0  0  0
   -4.2814   -1.5394   -0.3328 H   0  0  0  0  0  0  0  0  0  0  0  0
   -2.6858    2.4482   -1.3956 H   0  0  0  0  0  0  0  0  0  0  0  0
   -3.1388    3.1039    0.1846 H   0  0  0  0  0  0  0  0  0  0  0  0
   -4.7773    0.2906   -2.1924 H   0  0  0  0  0  0  0  0  0  0  0  0
   -5.9577    0.1682   -0.8895 H   0  0  0  0  0  0  0  0  0  0  0  0
   -5.0686    2.5678   -1.4862 H   0  0  0  0  0  0  0  0  0  0  0  0
   -5.2300    2.0985    0.1935 H   0  0  0  0  0  0  0  0  0  0  0  0
   -1.4695    1.9865    1.8527 H   0  0  0  0  0  0  0  0  0  0  0  0
   -0.6939    0.5011    1.3415 H   0  0  0  0  0  0  0  0  0  0  0  0
   -0.1235    1.6653   -0.8739 H   0  0  0  0  0  0  0  0  0  0  0  0
   -0.7910    3.1522   -0.2222 H   0  0  0  0  0  0  0  0  0  0  0  0
   -2.5319   -2.4323    1.0039 H   0  0  0  0  0  0  0  0  0  0  0  0
    0.0368   -0.6114   -1.9512 H   0  0  0  0  0  0  0  0  0  0  0  0
    0.8615    3.1935    1.5843 H   0  0  0  0  0  0  0  0  0  0  0  0
    1.4652    1.6310    1.0906 H   0  0  0  0  0  0  0  0  0  0  0  0
   -0.8685   -4.1763    1.3806 H   0  0  0  0  0  0  0  0  0  0  0  0
    1.7107   -2.3742   -1.5666 H   0  0  0  0  0  0  0  0  0  0  0  0
    1.6359    4.2820   -0.5716 H   0  0  0  0  0  0  0  0  0  0  0  0
    2.2643   -4.1399    0.9259 H   0  0  0  0  0  0  0  0  0  0  0  0
    1.0741   -5.3922    0.5019 H   0  0  0  0  0  0  0  0  0  0  0  0
    2.0916   -4.6963   -0.7559 H   0  0  0  0  0  0  0  0  0  0  0  0
    3.7334    3.4041   -1.3370 H   0  0  0  0  0  0  0  0  0  0  0  0
    3.7866    0.7761   -2.2939 H   0  0  0  0  0  0  0  0  0  0  0  0
    3.7560    1.9533    1.8615 H   0  0  0  0  0  0  0  0  0  0  0  0
    4.7256   -1.4144   -1.6527 H   0  0  0  0  0  0  0  0  0  0  0  0
    4.6791   -0.2419    2.4809 H   0  0  0  0  0  0  0  0  0  0  0  0
    5.1729   -1.9308    0.7320 H   0  0  0  0  0  0  0  0  0  0  0  0
  1  5  2  0  0  0  0
  2  3  1  0  0  0  0
  2  5  1  0  0  0  0
  2  6  1  0  0  0  0
  2  9  1  0  0  0  0
  3  4  1  0  0  0  0
  3 10  1  0  0  0  0
  3 27  1  0  0  0  0
  4  5  1  0  0  0  0
  4  7  1  0  0  0  0
  4 28  1  0  0  0  0
  6  8  1  0  0  0  0
  6 29  1  0  0  0  0
  6 30  1  0  0  0  0
  7  8  1  0  0  0  0
  7 31  1  0  0  0  0
  7 32  1  0  0  0  0
  8 33  1  0  0  0  0
  8 34  1  0  0  0  0
  9 11  1  0  0  0  0
  9 35  1  0  0  0  0
  9 36  1  0  0  0  0
 10 12  2  0  0  0  0
 10 13  1  0  0  0  0
 11 14  1  0  0  0  0
 11 37  1  0  0  0  0
 11 38  1  0  0  0  0
 12 15  1  0  0  0  0
 12 39  1  0  0  0  0
 13 16  2  0  0  0  0
 13 40  1  0  0  0  0
 14 18  1  0  0  0  0
 14 41  1  0  0  0  0
 14 42  1  0  0  0  0
 15 17  2  0  0  0  0
 15 43  1  0  0  0  0
 16 17  1  0  0  0  0
 16 44  1  0  0  0  0
 17 19  1  0  0  0  0
 18 20  2  0  0  0  0
 18 45  1  0  0  0  0
 19 46  1  0  0  0  0
 19 47  1  0  0  0  0
 19 48  1  0  0  0  0
 20 21  1  0  0  0  0
 20 49  1  0  0  0  0
 21 22  2  0  0  0  0
 21 23  1  0  0  0  0
 22 24  1  0  0  0  0
 22 50  1  0  0  0  0
 23 25  2  0  0  0  0
 23 51  1  0  0  0  0
 24 26  2  0  0  0  0
 24 52  1  0  0  0  0
 25 26  1  0  0  0  0
 25 53  1  0  0  0  0
 26 54  1  0  0  0  0
M  END
> <PUBCHEM_COMPOUND_CID>
102213076

> <PUBCHEM_CONFORMER_RMSD>
0.8

> <PUBCHEM_CONFORMER_DIVERSEORDER>
6
191
188
14
102
197
29
280
133
163
238
91
126
260
221
170
210
198
178
105
22
147
186
36
37
293
5
10
34
277
7
184
72
220
212
137
136
139
289
160
278
78
146
190
30
120
218
164
1
271
110
249
145
213
211
272
292
303
84
274
299
202
112
237
49
51
125
150
235
222
31
104
40
74
204
143
179
15
270
118
233
283
144
305
103
17
203
296
117
273
76
54
68
11
304
258
83
256
27
251
268
38
115
169
26
101
69
131
63
166
127
129
253
124
236
138
224
41
294
59
266
279
257
58
226
109
25
153
57
119
159
265
44
90
209
196
132
216
183
80
39
20
286
180
302
195
32
93
297
56
174
142
97
228
75
4
87
114
193
86
130
152
245
194
295
288
100
52
16
171
50
60
23
157
225
263
12
8
182
252
61
107
227
200
217
259
241
66
67
113
219
135
33
300
92
128
82
243
35
158
172
156
261
88
291
201
70
206
242
96
47
55
21
284
298
106
281
176
155
223
161
3
264
9
285
250
149
269
134
123
43
239
122
13
162
230
244
19
28
108
165
185
301
95
207
275
64
94
167
229
148
177
246
248
2
99
71
214
48
24
189
307
234
46
287
111
89
73
254
187
262
308
116
306
240
79
53
199
98
154
255
141
282
215
168
85
290
247
192
151
205
175
121
77
276
18
140
45
232
65
231
81
42
208
267
173
62
181

> <PUBCHEM_MMFF94_PARTIAL_CHARGES>
32
1 -0.57
10 -0.11
12 -0.15
13 -0.15
14 0.14
15 -0.15
16 -0.15
17 -0.14
18 -0.29
19 0.14
2 0.05
20 -0.18
21 0.03
22 -0.15
23 -0.15
24 -0.15
25 -0.15
26 -0.15
3 0.11
39 0.15
4 0.05
40 0.15
43 0.15
44 0.15
45 0.15
49 0.15
5 0.46
50 0.15
51 0.15
52 0.15
53 0.15
54 0.15

> <PUBCHEM_EFFECTIVE_ROTOR_COUNT>
6.8

> <PUBCHEM_PHARMACOPHORE_FEATURES>
5
1 1 acceptor
4 9 11 14 18 hydrophobe
6 10 12 13 15 16 17 rings
6 21 22 23 24 25 26 rings
7 2 3 4 5 6 7 8 rings

> <PUBCHEM_HEAVY_ATOM_COUNT>
26

> <PUBCHEM_ATOM_DEF_STEREO_COUNT>
0

> <PUBCHEM_ATOM_UDEF_STEREO_COUNT>
3

> <PUBCHEM_BOND_DEF_STEREO_COUNT>
1

> <PUBCHEM_BOND_UDEF_STEREO_COUNT>
0

> <PUBCHEM_ISOTOPIC_ATOM_COUNT>
0

> <PUBCHEM_COMPONENT_COUNT>
1

> <PUBCHEM_CACTVS_TAUTO_COUNT>
133

> <PUBCHEM_CONFORMER_ID>
0617A5D400000006

> <PUBCHEM_MMFF94_ENERGY>
69.5444

> <PUBCHEM_FEATURE_SELFOVERLAP>
25.373

> <PUBCHEM_SHAPE_FINGERPRINT>
10616163 171 17834679675137758244
107951 10 17603583062770238801
11370993 70 18410289233120306525
11578080 2 17461989978507100317
12592029 89 18411138030780637945
12633257 1 18409443730791329454
12788726 201 17758394467444406530
12838863 1 18269253725949121302
12978246 48 18409167740155682776
13122387 1 18267024041143101762
13140716 1 18269564999329128233
13402501 40 18271806787980182940
13583140 156 17458622354041252816
15403338 16 17025413518688722754
17093844 170 18342172233744399584
17349148 13 17988931084294416341
19315092 285 14189301400454082548
19591789 44 18339080513925384167
19930381 70 18265612078717615618
20721686 56 18121496856910399274
23559900 14 17836071287454710571
3027735 51 18268426824248251553
3298306 158 18337946797157210957
340366 18 18187080706466199508
3680242 22 18338237055162401576
392239 28 18339659879360427523
474 4 18411979131021376718
532947 4 18266737991730750455
6138700 20 18340765923685818158

> <PUBCHEM_SHAPE_MULTIPOLES>
529.2
9.94
4.74
1.33
1.56
3.44
-0.29
-4.17
0.18
2.02
-0.01
-0.13
-0.02
0.23

> <PUBCHEM_SHAPE_SELFOVERLAP>
1128.141

> <PUBCHEM_SHAPE_VOLUME>
292.3

> <PUBCHEM_COORDINATE_TYPE>
2
5
10

$$$$
