523955
  -OEChem-02172602493D

 27 27  0     0  0  0  0  0  0999 V2000
    3.4520   -0.5666    0.0858 O   0  0  0  0  0  0  0  0  0  0  0  0
    0.8324    0.3777   -0.2164 N   0  0  0  0  0  0  0  0  0  0  0  0
   -1.5703    0.1421   -0.2466 N   0  0  0  0  0  0  0  0  0  0  0  0
    1.1978   -0.9415   -0.7265 C   0  0  0  0  0  0  0  0  0  0  0  0
    1.9408    1.3217   -0.0967 C   0  0  0  0  0  0  0  0  0  0  0  0
    2.3618   -1.4918    0.0885 C   0  0  0  0  0  0  0  0  0  0  0  0
    3.0725    0.6723    0.6905 C   0  0  0  0  0  0  0  0  0  0  0  0
   -0.4551    0.7518   -0.0422 C   0  0  0  0  0  0  0  0  0  0  0  0
   -2.7739    0.9007    0.0717 C   0  0  0  0  0  0  0  0  0  0  0  0
   -4.0088    0.0561   -0.2164 C   0  0  0  0  0  0  0  0  0  0  0  0
   -4.0492   -1.2225    0.6084 C   0  0  0  0  0  0  0  0  0  0  0  0
    1.4901   -0.8394   -1.7782 H   0  0  0  0  0  0  0  0  0  0  0  0
    0.3574   -1.6427   -0.6786 H   0  0  0  0  0  0  0  0  0  0  0  0
    1.6366    2.2484    0.4023 H   0  0  0  0  0  0  0  0  0  0  0  0
    2.2856    1.5819   -1.1044 H   0  0  0  0  0  0  0  0  0  0  0  0
    2.0644   -1.6978    1.1238 H   0  0  0  0  0  0  0  0  0  0  0  0
    2.7163   -2.4299   -0.3499 H   0  0  0  0  0  0  0  0  0  0  0  0
    3.9499    1.3265    0.6948 H   0  0  0  0  0  0  0  0  0  0  0  0
    2.7840    0.4929    1.7332 H   0  0  0  0  0  0  0  0  0  0  0  0
   -0.5108    1.7881    0.3394 H   0  0  0  0  0  0  0  0  0  0  0  0
   -2.8194    1.8120   -0.5369 H   0  0  0  0  0  0  0  0  0  0  0  0
   -2.7716    1.1971    1.1279 H   0  0  0  0  0  0  0  0  0  0  0  0
   -4.9062    0.6485   -0.0045 H   0  0  0  0  0  0  0  0  0  0  0  0
   -4.0383   -0.2070   -1.2805 H   0  0  0  0  0  0  0  0  0  0  0  0
   -4.9772   -1.7683    0.4098 H   0  0  0  0  0  0  0  0  0  0  0  0
   -3.2138   -1.8858    0.3638 H   0  0  0  0  0  0  0  0  0  0  0  0
   -4.0106   -0.9993    1.6794 H   0  0  0  0  0  0  0  0  0  0  0  0
  1  6  1  0  0  0  0
  1  7  1  0  0  0  0
  2  4  1  0  0  0  0
  2  5  1  0  0  0  0
  2  8  1  0  0  0  0
  3  8  2  0  0  0  0
  3  9  1  0  0  0  0
  4  6  1  0  0  0  0
  4 12  1  0  0  0  0
  4 13  1  0  0  0  0
  5  7  1  0  0  0  0
  5 14  1  0  0  0  0
  5 15  1  0  0  0  0
  6 16  1  0  0  0  0
  6 17  1  0  0  0  0
  7 18  1  0  0  0  0
  7 19  1  0  0  0  0
  8 20  1  0  0  0  0
  9 10  1  0  0  0  0
  9 21  1  0  0  0  0
  9 22  1  0  0  0  0
 10 11  1  0  0  0  0
 10 23  1  0  0  0  0
 10 24  1  0  0  0  0
 11 25  1  0  0  0  0
 11 26  1  0  0  0  0
 11 27  1  0  0  0  0
M  END
> <PUBCHEM_COMPOUND_CID>
523955

> <PUBCHEM_CONFORMER_RMSD>
0.6

> <PUBCHEM_CONFORMER_DIVERSEORDER>
1
3
7
5
10
8
15
2
6
12
11
4
13
14
9

> <PUBCHEM_MMFF94_PARTIAL_CHARGES>
10
1 -0.56
2 -0.79
20 0.06
3 -0.7
4 0.37
5 0.37
6 0.28
7 0.28
8 0.44
9 0.25

> <PUBCHEM_EFFECTIVE_ROTOR_COUNT>
4.2

> <PUBCHEM_PHARMACOPHORE_FEATURES>
4
1 1 acceptor
1 11 hydrophobe
3 2 3 8 cation
6 1 2 4 5 6 7 rings

> <PUBCHEM_HEAVY_ATOM_COUNT>
11

> <PUBCHEM_ATOM_DEF_STEREO_COUNT>
0

> <PUBCHEM_ATOM_UDEF_STEREO_COUNT>
0

> <PUBCHEM_BOND_DEF_STEREO_COUNT>
0

> <PUBCHEM_BOND_UDEF_STEREO_COUNT>
0

> <PUBCHEM_ISOTOPIC_ATOM_COUNT>
0

> <PUBCHEM_COMPONENT_COUNT>
1

> <PUBCHEM_CACTVS_TAUTO_COUNT>
1

> <PUBCHEM_CONFORMER_ID>
0007FEB300000001

> <PUBCHEM_MMFF94_ENERGY>
14.9955

> <PUBCHEM_FEATURE_SELFOVERLAP>
20.297

> <PUBCHEM_SHAPE_FINGERPRINT>
10219947 1 18343017783328339108
11987891 27 16225758627628175811
12032990 46 18411422786663852814
12932764 1 17346308311006371877
14144814 61 18272090470127160257
14252887 29 17989211412973379118
14325111 11 18411418406119126605
177051 138 18408324393272780907
17834074 16 18408324401957940483
20201158 50 18408325466930416883
20279233 1 18334858316597922959
20281407 28 18186805746912028741
20645477 70 18271800173556805399
20871998 22 17913492338009800838
21501925 9 18409163324839559953
22169311 21 18261104163048792463
22485316 2 18187079542671836963
23402539 116 16298379154355305326
276578 36 15195288611930568252
3248919 1 17168156628159347373
57812782 119 18259982673936199737
581208 293 18410008861955134062

> <PUBCHEM_SHAPE_MULTIPOLES>
210.54
7.58
1.43
0.74
5.72
0.24
0.02
1.4
1.2
-0.4
0.05
-0.02
0.06
0.42

> <PUBCHEM_SHAPE_SELFOVERLAP>
400.393

> <PUBCHEM_SHAPE_VOLUME>
128.5

> <PUBCHEM_COORDINATE_TYPE>
2
5
10

$$$$
