5373537
  -OEChem-02172602423D

 36 35  0     0  0  0  0  0  0999 V2000
   -2.4530   -1.3321   -1.5532 O   0  0  0  0  0  0  0  0  0  0  0  0
   -3.4166   -0.5611    0.4167 N   0  0  0  0  0  0  0  0  0  0  0  0
   -5.2680    1.0362    0.0332 C   0  0  0  0  0  0  0  0  0  0  0  0
   -4.7669   -0.4082   -0.0768 C   0  0  0  0  0  0  0  0  0  0  0  0
   -4.3824    1.9632   -0.8003 C   0  0  0  0  0  0  0  0  0  0  0  0
   -5.3003    1.5133    1.4869 C   0  0  0  0  0  0  0  0  0  0  0  0
   -2.3719   -1.0129   -0.3716 C   0  0  0  0  0  0  0  0  0  0  0  0
   -1.0923   -1.0766    0.3891 C   0  0  0  0  0  0  0  0  0  0  0  0
    3.8072   -2.0604    0.6513 C   0  0  0  0  0  0  0  0  0  0  0  0
    0.0310   -1.4928   -0.2133 C   0  0  0  0  0  0  0  0  0  0  0  0
    2.4719   -1.9701   -0.0379 C   0  0  0  0  0  0  0  0  0  0  0  0
    4.8881   -1.2236   -0.0365 C   0  0  0  0  0  0  0  0  0  0  0  0
    1.2997   -1.5682    0.4778 C   0  0  0  0  0  0  0  0  0  0  0  0
    4.5591    0.2096   -0.0591 C   0  0  0  0  0  0  0  0  0  0  0  0
    4.2921    1.3800   -0.0793 C   0  0  0  0  0  0  0  0  0  0  0  0
    3.9854    2.7171   -0.1029 C   0  0  0  0  0  0  0  0  0  0  0  0
    3.7169    3.8867   -0.1242 C   0  0  0  0  0  0  0  0  0  0  0  0
   -6.2890    1.0746   -0.3658 H   0  0  0  0  0  0  0  0  0  0  0  0
   -5.3995   -1.0717    0.5233 H   0  0  0  0  0  0  0  0  0  0  0  0
   -4.8275   -0.7507   -1.1157 H   0  0  0  0  0  0  0  0  0  0  0  0
   -4.7920    2.9793   -0.8042 H   0  0  0  0  0  0  0  0  0  0  0  0
   -4.3311    1.6233   -1.8402 H   0  0  0  0  0  0  0  0  0  0  0  0
   -3.3612    2.0218   -0.4091 H   0  0  0  0  0  0  0  0  0  0  0  0
   -4.2981    1.5808    1.9225 H   0  0  0  0  0  0  0  0  0  0  0  0
   -5.8976    0.8353    2.1055 H   0  0  0  0  0  0  0  0  0  0  0  0
   -5.7543    2.5083    1.5509 H   0  0  0  0  0  0  0  0  0  0  0  0
   -3.2538   -0.3703    1.4010 H   0  0  0  0  0  0  0  0  0  0  0  0
   -1.0965   -0.7761    1.4323 H   0  0  0  0  0  0  0  0  0  0  0  0
    3.7094   -1.7487    1.6989 H   0  0  0  0  0  0  0  0  0  0  0  0
    4.1209   -3.1111    0.6603 H   0  0  0  0  0  0  0  0  0  0  0  0
    0.0276   -1.7910   -1.2582 H   0  0  0  0  0  0  0  0  0  0  0  0
    2.4823   -2.2870   -1.0808 H   0  0  0  0  0  0  0  0  0  0  0  0
    5.0383   -1.5803   -1.0627 H   0  0  0  0  0  0  0  0  0  0  0  0
    5.8387   -1.3695    0.4899 H   0  0  0  0  0  0  0  0  0  0  0  0
    1.2910   -1.2597    1.5221 H   0  0  0  0  0  0  0  0  0  0  0  0
    3.4785    4.9245   -0.1432 H   0  0  0  0  0  0  0  0  0  0  0  0
  1  7  2  0  0  0  0
  2  4  1  0  0  0  0
  2  7  1  0  0  0  0
  2 27  1  0  0  0  0
  3  4  1  0  0  0  0
  3  5  1  0  0  0  0
  3  6  1  0  0  0  0
  3 18  1  0  0  0  0
  4 19  1  0  0  0  0
  4 20  1  0  0  0  0
  5 21  1  0  0  0  0
  5 22  1  0  0  0  0
  5 23  1  0  0  0  0
  6 24  1  0  0  0  0
  6 25  1  0  0  0  0
  6 26  1  0  0  0  0
  7  8  1  0  0  0  0
  8 10  2  0  0  0  0
  8 28  1  0  0  0  0
  9 11  1  0  0  0  0
  9 12  1  0  0  0  0
  9 29  1  0  0  0  0
  9 30  1  0  0  0  0
 10 13  1  0  0  0  0
 10 31  1  0  0  0  0
 11 13  2  0  0  0  0
 11 32  1  0  0  0  0
 12 14  1  0  0  0  0
 12 33  1  0  0  0  0
 12 34  1  0  0  0  0
 13 35  1  0  0  0  0
 14 15  3  0  0  0  0
 15 16  1  0  0  0  0
 16 17  3  0  0  0  0
 17 36  1  0  0  0  0
M  END
> <PUBCHEM_COMPOUND_CID>
5373537

> <PUBCHEM_CONFORMER_RMSD>
0.8

> <PUBCHEM_CONFORMER_DIVERSEORDER>
2
37
42
9
20
32
13
35
17
24
4
31
44
10
15
3
43
22
47
40
23
19
12
5
25
28
41
30
38
33
16
6
18
11
27
29
14
1
26
45
39
34
8
21
36
7
46

> <PUBCHEM_MMFF94_PARTIAL_CHARGES>
18
1 -0.57
10 -0.15
11 -0.29
12 0.2
13 -0.15
14 -0.2
17 -0.18
2 -0.73
27 0.37
28 0.15
31 0.15
32 0.15
35 0.15
36 0.18
4 0.3
7 0.62
8 -0.14
9 0.14

> <PUBCHEM_EFFECTIVE_ROTOR_COUNT>
7

> <PUBCHEM_PHARMACOPHORE_FEATURES>
5
1 1 acceptor
1 17 hydrophobe
1 2 donor
3 3 5 6 hydrophobe
4 9 11 12 14 hydrophobe

> <PUBCHEM_HEAVY_ATOM_COUNT>
17

> <PUBCHEM_ATOM_DEF_STEREO_COUNT>
0

> <PUBCHEM_ATOM_UDEF_STEREO_COUNT>
0

> <PUBCHEM_BOND_DEF_STEREO_COUNT>
2

> <PUBCHEM_BOND_UDEF_STEREO_COUNT>
0

> <PUBCHEM_ISOTOPIC_ATOM_COUNT>
0

> <PUBCHEM_COMPONENT_COUNT>
1

> <PUBCHEM_CACTVS_TAUTO_COUNT>
2

> <PUBCHEM_CONFORMER_ID>
0051FE6100000002

> <PUBCHEM_MMFF94_ENERGY>
11.0365

> <PUBCHEM_FEATURE_SELFOVERLAP>
25.373

> <PUBCHEM_SHAPE_FINGERPRINT>
11070050 100 16732983102808270560
11101153 10 18411696630422798909
13398642 44 17679317517817590980
14251732 16 18335986467210534411
14251764 38 18339930320260335729
14251764 75 18120102925015973868
14429114 114 18269271438041146960
14429380 56 18335969918727455877
14848178 96 18337947999748138080
15142526 21 18187926239407917858
16760501 71 18409174333178492905
1768 23 17630352795141762265
17810953 82 18409451414403847964
17834072 32 18341895190383017990
17844677 252 18410580595296543579
17959699 21 18412824694138551402
19752476 56 18271246144567000916
21315764 268 18261387794067671413
21734292 116 18410853282701880517
23559900 14 17632300012844167958
245318 6 17898022453851156044
3014063 31 18410011009924721900
4259306 186 9655567500945292547
474 4 18409729608057082738
5104073 3 18114180864877617538
543358 83 18412545414396342722
57483677 66 8502366737401550163
633830 44 18409724093145345454

> <PUBCHEM_SHAPE_MULTIPOLES>
339
14.73
3.63
0.95
7.99
3.75
-0.02
7.62
-1.27
-5.17
0.07
1.09
0.03
-0.97

> <PUBCHEM_SHAPE_SELFOVERLAP>
647.92

> <PUBCHEM_SHAPE_VOLUME>
205

> <PUBCHEM_COORDINATE_TYPE>
2
5
10

$$$$
