22013
  -OEChem-02172602273D

 23 23  0     0  0  0  0  0  0999 V2000
   -2.9483    1.5578    0.0003 O   0  0  0  0  0  0  0  0  0  0  0  0
    1.6608   -0.4170    0.0000 C   0  0  0  0  0  0  0  0  0  0  0  0
    1.2027    0.9004    0.0000 C   0  0  0  0  0  0  0  0  0  0  0  0
   -0.6211   -1.2105    0.0001 C   0  0  0  0  0  0  0  0  0  0  0  0
   -1.0793    0.1070   -0.0002 C   0  0  0  0  0  0  0  0  0  0  0  0
    0.7489   -1.4725    0.0003 C   0  0  0  0  0  0  0  0  0  0  0  0
   -0.1673    1.1624   -0.0002 C   0  0  0  0  0  0  0  0  0  0  0  0
    3.1230   -0.7220    0.0001 C   0  0  0  0  0  0  0  0  0  0  0  0
    2.1602    2.0468   -0.0001 C   0  0  0  0  0  0  0  0  0  0  0  0
   -1.5752   -2.3600   -0.0002 C   0  0  0  0  0  0  0  0  0  0  0  0
   -2.5045    0.4075    0.0000 C   0  0  0  0  0  0  0  0  0  0  0  0
    1.1066   -2.4994    0.0005 H   0  0  0  0  0  0  0  0  0  0  0  0
   -0.5160    2.1925   -0.0003 H   0  0  0  0  0  0  0  0  0  0  0  0
    3.3132   -1.8010   -0.0006 H   0  0  0  0  0  0  0  0  0  0  0  0
    3.6030   -0.3096   -0.8933 H   0  0  0  0  0  0  0  0  0  0  0  0
    3.6026   -0.3107    0.8942 H   0  0  0  0  0  0  0  0  0  0  0  0
    2.7924    2.0211    0.8935 H   0  0  0  0  0  0  0  0  0  0  0  0
    2.7918    2.0216   -0.8940 H   0  0  0  0  0  0  0  0  0  0  0  0
    1.6403    3.0112    0.0005 H   0  0  0  0  0  0  0  0  0  0  0  0
   -2.2044   -2.3418    0.8957 H   0  0  0  0  0  0  0  0  0  0  0  0
   -2.2040   -2.3417   -0.8965 H   0  0  0  0  0  0  0  0  0  0  0  0
   -1.0495   -3.3215   -0.0002 H   0  0  0  0  0  0  0  0  0  0  0  0
   -3.2142   -0.4336   -0.0001 H   0  0  0  0  0  0  0  0  0  0  0  0
  1 11  2  0  0  0  0
  2  3  1  0  0  0  0
  2  6  2  0  0  0  0
  2  8  1  0  0  0  0
  3  7  2  0  0  0  0
  3  9  1  0  0  0  0
  4  5  2  0  0  0  0
  4  6  1  0  0  0  0
  4 10  1  0  0  0  0
  5  7  1  0  0  0  0
  5 11  1  0  0  0  0
  6 12  1  0  0  0  0
  7 13  1  0  0  0  0
  8 14  1  0  0  0  0
  8 15  1  0  0  0  0
  8 16  1  0  0  0  0
  9 17  1  0  0  0  0
  9 18  1  0  0  0  0
  9 19  1  0  0  0  0
 10 20  1  0  0  0  0
 10 21  1  0  0  0  0
 10 22  1  0  0  0  0
 11 23  1  0  0  0  0
M  END
> <PUBCHEM_COMPOUND_CID>
22013

> <PUBCHEM_CONFORMER_RMSD>
0.4

> <PUBCHEM_CONFORMER_DIVERSEORDER>
1
2

> <PUBCHEM_MMFF94_PARTIAL_CHARGES>
14
1 -0.57
10 0.14
11 0.42
12 0.15
13 0.15
2 -0.14
23 0.06
3 -0.14
4 -0.14
5 0.09
6 -0.15
7 -0.15
8 0.14
9 0.14

> <PUBCHEM_EFFECTIVE_ROTOR_COUNT>
1

> <PUBCHEM_PHARMACOPHORE_FEATURES>
2
1 1 acceptor
6 2 3 4 5 6 7 rings

> <PUBCHEM_HEAVY_ATOM_COUNT>
11

> <PUBCHEM_ATOM_DEF_STEREO_COUNT>
0

> <PUBCHEM_ATOM_UDEF_STEREO_COUNT>
0

> <PUBCHEM_BOND_DEF_STEREO_COUNT>
0

> <PUBCHEM_BOND_UDEF_STEREO_COUNT>
0

> <PUBCHEM_ISOTOPIC_ATOM_COUNT>
0

> <PUBCHEM_COMPONENT_COUNT>
1

> <PUBCHEM_CACTVS_TAUTO_COUNT>
1

> <PUBCHEM_CONFORMER_ID>
000055FD00000001

> <PUBCHEM_MMFF94_ENERGY>
29.7458

> <PUBCHEM_FEATURE_SELFOVERLAP>
10.148

> <PUBCHEM_SHAPE_FINGERPRINT>
11206711 2 17978794832673823309
13380535 21 18266191693228476476
13380535 76 18340198678306021894
14325111 11 18410855469013794305
14648413 74 18411140268379302424
14911166 2 18339646629201118254
14993402 34 18338516318215175862
16945 1 18410575041829547942
193761 8 18266459986913476518
19973954 147 18266177412419817878
20511035 2 18272362118324049830
20588541 1 18339928087024567086
21040471 1 18410574002421082049
21501502 16 18338234997957520990
23235685 24 18340481149788946224
2334 1 18266460004140772998
23402655 69 17979337683024974445
23552423 10 18189333644487883022
23559900 14 18342463600431914862
241688 4 17404028019851357354
2748010 2 18339081617573736814
5084963 1 18130501946807865041
528886 8 18339073770557684779
68250623 7 18337392772071944946

> <PUBCHEM_SHAPE_MULTIPOLES>
220.51
3.95
2.29
0.61
0.21
0.21
0
-0.78
0
-0.42
0
0.02
0.02
0

> <PUBCHEM_SHAPE_SELFOVERLAP>
457.933

> <PUBCHEM_SHAPE_VOLUME>
127.9

> <PUBCHEM_COORDINATE_TYPE>
2
5
10

$$$$
