101297597
  -OEChem-02172602513D

 62 65  0     1  0  0  0  0  0999 V2000
   -0.0400    3.1508   -0.5194 O   0  0  0  0  0  0  0  0  0  0  0  0
   -0.8781   -0.2157   -0.8616 O   0  0  0  0  0  0  0  0  0  0  0  0
   -1.9147    2.3241   -1.5499 O   0  0  0  0  0  0  0  0  0  0  0  0
   -5.7031   -1.4684    0.2777 O   0  0  0  0  0  0  0  0  0  0  0  0
   -6.9245    0.6053    0.1521 O   0  0  0  0  0  0  0  0  0  0  0  0
   -0.1316   -1.6143    0.8081 O   0  0  0  0  0  0  0  0  0  0  0  0
    5.4825   -1.9967    0.8662 O   0  0  0  0  0  0  0  0  0  0  0  0
    7.2027    0.1708    0.6059 O   0  0  0  0  0  0  0  0  0  0  0  0
    0.8962    1.1179    0.1934 C   0  0  2  0  0  0  0  0  0  0  0  0
   -0.5959    0.9113   -0.0617 C   0  0  2  0  0  0  0  0  0  0  0  0
    0.9756    2.6272    0.3479 C   0  0  0  0  0  0  0  0  0  0  0  0
   -1.4207    0.8293    1.2207 C   0  0  0  0  0  0  0  0  0  0  0  0
    1.7854    0.6400   -0.9595 C   0  0  0  0  0  0  0  0  0  0  0  0
   -0.9564    2.1745   -0.8079 C   0  0  0  0  0  0  0  0  0  0  0  0
   -2.9001    0.8059    0.9364 C   0  0  0  0  0  0  0  0  0  0  0  0
    3.2270    0.5122   -0.5409 C   0  0  0  0  0  0  0  0  0  0  0  0
   -3.5512   -0.4155    0.7474 C   0  0  0  0  0  0  0  0  0  0  0  0
   -3.6128    2.0157    0.8630 C   0  0  0  0  0  0  0  0  0  0  0  0
   -0.5986   -1.4339   -0.3074 C   0  0  0  0  0  0  0  0  0  0  0  0
    3.6985   -0.6939   -0.0228 C   0  0  0  0  0  0  0  0  0  0  0  0
    4.0904    1.5998   -0.6725 C   0  0  0  0  0  0  0  0  0  0  0  0
   -4.9062   -0.3854    0.4887 C   0  0  0  0  0  0  0  0  0  0  0  0
   -4.9846    2.0181    0.5997 C   0  0  0  0  0  0  0  0  0  0  0  0
   -5.6037    0.7986    0.4168 C   0  0  0  0  0  0  0  0  0  0  0  0
    5.0335   -0.8127    0.3638 C   0  0  0  0  0  0  0  0  0  0  0  0
    5.4253    1.4811   -0.2858 C   0  0  0  0  0  0  0  0  0  0  0  0
   -0.9431   -2.5231   -1.2712 C   0  0  0  0  0  0  0  0  0  0  0  0
    5.8970    0.2749    0.2323 C   0  0  0  0  0  0  0  0  0  0  0  0
   -6.9804   -0.8331    0.0656 C   0  0  0  0  0  0  0  0  0  0  0  0
   -0.8785   -2.2214   -2.7391 C   0  0  0  0  0  0  0  0  0  0  0  0
   -1.3179   -3.6942   -0.7243 C   0  0  0  0  0  0  0  0  0  0  0  0
   -1.4259   -4.0200    0.7317 C   0  0  0  0  0  0  0  0  0  0  0  0
    4.5352   -3.0583    0.9675 C   0  0  0  0  0  0  0  0  0  0  0  0
    8.0187    1.3289    0.4391 C   0  0  0  0  0  0  0  0  0  0  0  0
    1.2174    0.6294    1.1218 H   0  0  0  0  0  0  0  0  0  0  0  0
    0.7390    2.9444    1.3696 H   0  0  0  0  0  0  0  0  0  0  0  0
    1.9328    3.0731    0.0793 H   0  0  0  0  0  0  0  0  0  0  0  0
   -1.2229    1.7103    1.8481 H   0  0  0  0  0  0  0  0  0  0  0  0
   -1.1753   -0.0062    1.8811 H   0  0  0  0  0  0  0  0  0  0  0  0
    1.7116    1.3158   -1.8222 H   0  0  0  0  0  0  0  0  0  0  0  0
    1.4826   -0.3375   -1.3457 H   0  0  0  0  0  0  0  0  0  0  0  0
   -3.0354   -1.3613    0.8227 H   0  0  0  0  0  0  0  0  0  0  0  0
   -3.1078    2.9657    1.0211 H   0  0  0  0  0  0  0  0  0  0  0  0
    2.9805   -1.5032    0.0587 H   0  0  0  0  0  0  0  0  0  0  0  0
    3.7478    2.5394   -1.0961 H   0  0  0  0  0  0  0  0  0  0  0  0
   -5.5381    2.9485    0.5444 H   0  0  0  0  0  0  0  0  0  0  0  0
    6.0391    2.3649   -0.4214 H   0  0  0  0  0  0  0  0  0  0  0  0
   -7.6855   -1.2029    0.8189 H   0  0  0  0  0  0  0  0  0  0  0  0
   -7.3495   -1.1108   -0.9284 H   0  0  0  0  0  0  0  0  0  0  0  0
   -1.6359   -1.4822   -3.0184 H   0  0  0  0  0  0  0  0  0  0  0  0
    0.1093   -1.8336   -3.0076 H   0  0  0  0  0  0  0  0  0  0  0  0
   -1.0547   -3.1205   -3.3389 H   0  0  0  0  0  0  0  0  0  0  0  0
   -1.5714   -4.5098   -1.3992 H   0  0  0  0  0  0  0  0  0  0  0  0
   -1.8682   -3.2202    1.3285 H   0  0  0  0  0  0  0  0  0  0  0  0
   -0.4493   -4.2984    1.1389 H   0  0  0  0  0  0  0  0  0  0  0  0
   -2.0872   -4.8858    0.8521 H   0  0  0  0  0  0  0  0  0  0  0  0
    5.0629   -3.9216    1.3863 H   0  0  0  0  0  0  0  0  0  0  0  0
    4.1617   -3.3617   -0.0165 H   0  0  0  0  0  0  0  0  0  0  0  0
    3.7261   -2.8128    1.6640 H   0  0  0  0  0  0  0  0  0  0  0  0
    9.0235    1.0679    0.7875 H   0  0  0  0  0  0  0  0  0  0  0  0
    7.6721    2.1601    1.0626 H   0  0  0  0  0  0  0  0  0  0  0  0
    8.1110    1.6089   -0.6158 H   0  0  0  0  0  0  0  0  0  0  0  0
  1 11  1  0  0  0  0
  1 14  1  0  0  0  0
  2 10  1  0  0  0  0
  2 19  1  0  0  0  0
  3 14  2  0  0  0  0
  4 22  1  0  0  0  0
  4 29  1  0  0  0  0
  5 24  1  0  0  0  0
  5 29  1  0  0  0  0
  6 19  2  0  0  0  0
  7 25  1  0  0  0  0
  7 33  1  0  0  0  0
  8 28  1  0  0  0  0
  8 34  1  0  0  0  0
  9 10  1  0  0  0  0
  9 11  1  0  0  0  0
  9 13  1  0  0  0  0
  9 35  1  0  0  0  0
 10 12  1  0  0  0  0
 10 14  1  0  0  0  0
 11 36  1  0  0  0  0
 11 37  1  0  0  0  0
 12 15  1  0  0  0  0
 12 38  1  0  0  0  0
 12 39  1  0  0  0  0
 13 16  1  0  0  0  0
 13 40  1  0  0  0  0
 13 41  1  0  0  0  0
 15 17  2  0  0  0  0
 15 18  1  0  0  0  0
 16 20  2  0  0  0  0
 16 21  1  0  0  0  0
 17 22  1  0  0  0  0
 17 42  1  0  0  0  0
 18 23  2  0  0  0  0
 18 43  1  0  0  0  0
 19 27  1  0  0  0  0
 20 25  1  0  0  0  0
 20 44  1  0  0  0  0
 21 26  2  0  0  0  0
 21 45  1  0  0  0  0
 22 24  2  0  0  0  0
 23 24  1  0  0  0  0
 23 46  1  0  0  0  0
 25 28  2  0  0  0  0
 26 28  1  0  0  0  0
 26 47  1  0  0  0  0
 27 30  1  0  0  0  0
 27 31  2  0  0  0  0
 29 48  1  0  0  0  0
 29 49  1  0  0  0  0
 30 50  1  0  0  0  0
 30 51  1  0  0  0  0
 30 52  1  0  0  0  0
 31 32  1  0  0  0  0
 31 53  1  0  0  0  0
 32 54  1  0  0  0  0
 32 55  1  0  0  0  0
 32 56  1  0  0  0  0
 33 57  1  0  0  0  0
 33 58  1  0  0  0  0
 33 59  1  0  0  0  0
 34 60  1  0  0  0  0
 34 61  1  0  0  0  0
 34 62  1  0  0  0  0
M  END
> <PUBCHEM_COMPOUND_CID>
101297597

> <PUBCHEM_CONFORMER_RMSD>
1.2

> <PUBCHEM_CONFORMER_DIVERSEORDER>
1
58
109
28
130
123
15
93
2
71
76
75
120
66
52
113
63
87
128
82
88
54
70
23
108
45
64
114
122
77
12
102
9
92
110
121
49
62
111
61
24
67
69
125
99
112
6
107
68
59
19
103
26
5
18
98
104
40
83
42
37
105
56
73
44
80
133
4
16
10
89
48
36
27
46
134
101
118
124
17
85
91
127
126
3
96
86
11
50
29
94
115
95
90
129
132
60
34
13
79
81
39
14
65
97
43
25
53
78
21
41
100
57
106
32
33
20
38
116
55
8
119
131
72
35
117
31
30
7
22
51
74
84
47

> <PUBCHEM_MMFF94_PARTIAL_CHARGES>
40
1 -0.43
10 0.34
11 0.28
12 0.14
13 0.14
14 0.66
15 -0.14
16 -0.14
17 -0.15
18 -0.15
19 0.71
2 -0.43
20 -0.15
21 -0.15
22 0.08
23 -0.15
24 0.08
25 0.08
26 -0.15
27 -0.12
28 0.08
29 0.56
3 -0.57
30 0.14
31 -0.29
32 0.14
33 0.28
34 0.28
4 -0.36
42 0.15
43 0.15
44 0.15
45 0.15
46 0.15
47 0.15
5 -0.36
53 0.15
6 -0.57
7 -0.36
8 -0.36

> <PUBCHEM_EFFECTIVE_ROTOR_COUNT>
10.4

> <PUBCHEM_PHARMACOPHORE_FEATURES>
12
1 3 acceptor
1 30 hydrophobe
1 32 hydrophobe
1 4 acceptor
1 5 acceptor
1 6 acceptor
1 7 acceptor
1 8 acceptor
5 1 9 10 11 14 rings
5 4 5 22 24 29 rings
6 15 17 18 22 23 24 rings
6 16 20 21 25 26 28 rings

> <PUBCHEM_HEAVY_ATOM_COUNT>
34

> <PUBCHEM_ATOM_DEF_STEREO_COUNT>
2

> <PUBCHEM_ATOM_UDEF_STEREO_COUNT>
0

> <PUBCHEM_BOND_DEF_STEREO_COUNT>
1

> <PUBCHEM_BOND_UDEF_STEREO_COUNT>
0

> <PUBCHEM_ISOTOPIC_ATOM_COUNT>
0

> <PUBCHEM_COMPONENT_COUNT>
1

> <PUBCHEM_CACTVS_TAUTO_COUNT>
11

> <PUBCHEM_CONFORMER_ID>
0609ADBD00000001

> <PUBCHEM_MMFF94_ENERGY>
116.8139

> <PUBCHEM_FEATURE_SELFOVERLAP>
61.06

> <PUBCHEM_SHAPE_FINGERPRINT>
10930396 42 18267003090472507056
10939801 23 18412262874405087480
1100329 8 18268431403004401779
11135926 11 18410010997635366957
11524674 6 17775568649632134823
11578080 2 17058075860379909408
12107698 1 18042967567527398930
12422481 6 18265899055483875599
12788726 201 17346323644361385992
13140716 1 18268711795871439016
14068700 675 18059573637834130849
14394314 77 18411139121317735649
14790565 3 18410579461404078281
14866123 147 18340203110886994367
15815584 197 18193585310288030363
15849732 13 18410293626898087556
16728300 4 17679849428179169666
16994733 274 14979689749581371395
17492 89 18118963590893950170
18681886 176 18341889736455099521
19319366 153 17894909629427900922
20028762 73 18131634513089851927
20197701 30 18272653424554903503
20511986 3 18411410744229819104
21583282 1 17605572143239512868
23559900 14 18337950195115074537
23569917 315 18342468014783524295
3178227 256 18338250340192671585
3383291 50 18340491165822284915
4017518 198 17703801318776093494
5171179 24 17552375284070313439
6009941 240 17313387867502494467
7226269 152 17704075092343197841
99344 41 18337389340160752802

> <PUBCHEM_SHAPE_MULTIPOLES>
652.75
16.73
3.85
1.3
10.88
2.98
0.64
-2.65
-4.85
-0.64
0.31
-0.23
0.57
-1.24

> <PUBCHEM_SHAPE_SELFOVERLAP>
1420.576

> <PUBCHEM_SHAPE_VOLUME>
355.9

> <PUBCHEM_COORDINATE_TYPE>
2
5
10

$$$$
