608504
  -OEChem-02172602563D

 36 37  0     0  0  0  0  0  0999 V2000
   -3.0348   -0.9247   -0.0889 O   0  0  0  0  0  0  0  0  0  0  0  0
    1.8146   -0.0983    0.6009 N   0  0  0  0  0  0  0  0  0  0  0  0
    2.0850    2.3074    0.6067 C   0  0  0  0  0  0  0  0  0  0  0  0
    1.6811   -2.5152    0.6136 C   0  0  0  0  0  0  0  0  0  0  0  0
    1.2075    1.1053    0.4970 C   0  0  0  0  0  0  0  0  0  0  0  0
    1.0157   -1.1842    0.5008 C   0  0  0  0  0  0  0  0  0  0  0  0
   -0.9423    0.1321    0.2002 C   0  0  0  0  0  0  0  0  0  0  0  0
    2.6287    2.7556   -0.7567 C   0  0  0  0  0  0  0  0  0  0  0  0
    2.1414   -3.0515   -0.7488 C   0  0  0  0  0  0  0  0  0  0  0  0
   -0.1534    1.2730    0.2983 C   0  0  0  0  0  0  0  0  0  0  0  0
   -0.3543   -1.1238    0.3023 C   0  0  0  0  0  0  0  0  0  0  0  0
   -2.3646    0.2510   -0.0073 C   0  0  0  0  0  0  0  0  0  0  0  0
    3.4940    4.0006   -0.6415 C   0  0  0  0  0  0  0  0  0  0  0  0
    2.8484   -4.3916   -0.6221 C   0  0  0  0  0  0  0  0  0  0  0  0
   -3.2184    1.3145   -0.1457 C   0  0  0  0  0  0  0  0  0  0  0  0
   -4.5068    0.7573   -0.3255 C   0  0  0  0  0  0  0  0  0  0  0  0
   -4.3419   -0.6076   -0.2831 C   0  0  0  0  0  0  0  0  0  0  0  0
    1.5369    3.1299    1.0835 H   0  0  0  0  0  0  0  0  0  0  0  0
    2.9246    2.0777    1.2753 H   0  0  0  0  0  0  0  0  0  0  0  0
    2.5484   -2.4234    1.2801 H   0  0  0  0  0  0  0  0  0  0  0  0
    1.0071   -3.2354    1.0945 H   0  0  0  0  0  0  0  0  0  0  0  0
    3.2171    1.9471   -1.2076 H   0  0  0  0  0  0  0  0  0  0  0  0
    1.7977    2.9616   -1.4425 H   0  0  0  0  0  0  0  0  0  0  0  0
    1.2794   -3.1621   -1.4180 H   0  0  0  0  0  0  0  0  0  0  0  0
    2.8195   -2.3318   -1.2236 H   0  0  0  0  0  0  0  0  0  0  0  0
   -0.5747    2.2705    0.2216 H   0  0  0  0  0  0  0  0  0  0  0  0
   -0.9287   -2.0422    0.2297 H   0  0  0  0  0  0  0  0  0  0  0  0
    2.9219    4.8385   -0.2305 H   0  0  0  0  0  0  0  0  0  0  0  0
    4.3552    3.8198    0.0095 H   0  0  0  0  0  0  0  0  0  0  0  0
    3.8682    4.2952   -1.6269 H   0  0  0  0  0  0  0  0  0  0  0  0
    3.7380   -4.3069    0.0100 H   0  0  0  0  0  0  0  0  0  0  0  0
    2.1852   -5.1441   -0.1838 H   0  0  0  0  0  0  0  0  0  0  0  0
    3.1641   -4.7487   -1.6074 H   0  0  0  0  0  0  0  0  0  0  0  0
   -2.9655    2.3650   -0.1232 H   0  0  0  0  0  0  0  0  0  0  0  0
   -5.4390    1.2844   -0.4682 H   0  0  0  0  0  0  0  0  0  0  0  0
   -5.0180   -1.4455   -0.3701 H   0  0  0  0  0  0  0  0  0  0  0  0
  1 12  1  0  0  0  0
  1 17  1  0  0  0  0
  2  5  2  0  0  0  0
  2  6  1  0  0  0  0
  3  5  1  0  0  0  0
  3  8  1  0  0  0  0
  3 18  1  0  0  0  0
  3 19  1  0  0  0  0
  4  6  1  0  0  0  0
  4  9  1  0  0  0  0
  4 20  1  0  0  0  0
  4 21  1  0  0  0  0
  5 10  1  0  0  0  0
  6 11  2  0  0  0  0
  7 10  2  0  0  0  0
  7 11  1  0  0  0  0
  7 12  1  0  0  0  0
  8 13  1  0  0  0  0
  8 22  1  0  0  0  0
  8 23  1  0  0  0  0
  9 14  1  0  0  0  0
  9 24  1  0  0  0  0
  9 25  1  0  0  0  0
 10 26  1  0  0  0  0
 11 27  1  0  0  0  0
 12 15  2  0  0  0  0
 13 28  1  0  0  0  0
 13 29  1  0  0  0  0
 13 30  1  0  0  0  0
 14 31  1  0  0  0  0
 14 32  1  0  0  0  0
 14 33  1  0  0  0  0
 15 16  1  0  0  0  0
 15 34  1  0  0  0  0
 16 17  2  0  0  0  0
 16 35  1  0  0  0  0
 17 36  1  0  0  0  0
M  END
> <PUBCHEM_COMPOUND_CID>
608504

> <PUBCHEM_CONFORMER_RMSD>
0.6

> <PUBCHEM_CONFORMER_DIVERSEORDER>
1
55
64
56
37
24
53
68
51
44
54
67
57
23
10
2
34
60
46
14
40
39
59
12
38
49
62
61
17
36
13
16
63
50
9
48
33
21
28
41
66
58
27
29
43
65
45
26
20
3
47
22
7
25
19
32
5
30
11
42
52
18
4
31
35
6
8
15

> <PUBCHEM_MMFF94_PARTIAL_CHARGES>
18
1 -0.28
10 -0.15
11 -0.15
12 0.09
15 -0.15
16 -0.15
17 -0.01
2 -0.62
26 0.15
27 0.15
3 0.14
34 0.15
35 0.15
36 0.15
4 0.14
5 0.17
6 0.17
7 0.05

> <PUBCHEM_EFFECTIVE_ROTOR_COUNT>
5

> <PUBCHEM_PHARMACOPHORE_FEATURES>
6
1 1 acceptor
1 13 hydrophobe
1 14 hydrophobe
1 2 acceptor
5 1 12 15 16 17 rings
6 2 5 6 7 10 11 rings

> <PUBCHEM_HEAVY_ATOM_COUNT>
17

> <PUBCHEM_ATOM_DEF_STEREO_COUNT>
0

> <PUBCHEM_ATOM_UDEF_STEREO_COUNT>
0

> <PUBCHEM_BOND_DEF_STEREO_COUNT>
0

> <PUBCHEM_BOND_UDEF_STEREO_COUNT>
0

> <PUBCHEM_ISOTOPIC_ATOM_COUNT>
0

> <PUBCHEM_COMPONENT_COUNT>
1

> <PUBCHEM_CACTVS_TAUTO_COUNT>
2

> <PUBCHEM_CONFORMER_ID>
000948F800000001

> <PUBCHEM_MMFF94_ENERGY>
21.3764

> <PUBCHEM_FEATURE_SELFOVERLAP>
30.447

> <PUBCHEM_SHAPE_FINGERPRINT>
11045515 52 17902239914309139646
11833330 49 17688027514272795234
12173636 292 17977099394339482700
12553582 1 17905322923491880299
12788726 201 17180252101925878730
13257819 37 17829909967699445620
14004458 79 17403753146587605478
14178000 29 18127687124095367071
14508225 48 17835797500410918206
15442244 35 18126281944219345673
15502722 9 18410294726393689485
167882 2 18335987558073854356
17041 50 18048025286322594087
17134986 127 18263363766749905140
17539 30 17330547645135444974
1813 80 17841726114046857295
18785283 64 18334298694874904040
18915476 22 18265353831087540187
20286276 3 18410297982833650075
20600515 1 17832680414594148280
20602899 9 17911537681055117112
20645476 183 17901947774897380436
20645477 70 18338222800825621295
20671657 53 18125440804564823823
20871998 22 18126556817446466794
21426921 1 17186160869388322078
21499 59 18191298484578021053
21524375 3 17972307675605532904
221490 88 18410015425177469635
2255824 54 18410289181765386579
23114952 82 18334857190810349429
23366157 5 18260545602103645819
23419403 2 17536642548271017866
23530152 11 18123466339500435418
23557571 272 17624413074430835438
23559900 14 18269823251713204875
23566358 27 18412542128578134671
23598288 3 17033608552934632308
2748010 2 18120385507935192554
298252 57 17972878343652173672
3057174 1 18266740366905603662
3071541 12 18409732833007686257
3071541 250 18267590100130592986
3091708 16 9473039770161740922
314173 41 18194404386020604987
394222 165 17970052542981759128
458136 41 18339375170088271777
474229 33 17902512928247821331
532947 4 18340779204157064814
53777708 50 18343021073869152953
57210444 14 18121234314048659476
58779409 8 17834678579810009764
60123966 16 18117816855911039701
6025842 7 18410567427316730103
6138700 20 18410297983055079374
7364860 26 18413102849094869210
77188 2 18122624946949005318
81228 2 17548138827071147074
81539 233 18335695104569904445
9709674 26 18409726249545962747
9841814 1 18115580427231152243
9981440 41 18193272116291900889

> <PUBCHEM_SHAPE_MULTIPOLES>
339
7.08
5.02
0.84
8.22
1.34
-0.03
-1.34
-1.7
-9.9
-1.54
-0.4
0.01
-0.03

> <PUBCHEM_SHAPE_SELFOVERLAP>
708.454

> <PUBCHEM_SHAPE_VOLUME>
195.4

> <PUBCHEM_COORDINATE_TYPE>
2
5
10

$$$$
