102434453
  -OEChem-02172602443D

 53 55  0     0  0  0  0  0  0999 V2000
    1.3233    2.6936   -0.8967 O   0  0  0  0  0  0  0  0  0  0  0  0
    3.0070    1.2292    1.1185 O   0  0  0  0  0  0  0  0  0  0  0  0
    1.5223   -3.7688   -0.2006 O   0  0  0  0  0  0  0  0  0  0  0  0
   -0.8200    2.6320   -0.0591 O   0  0  0  0  0  0  0  0  0  0  0  0
    3.9088    0.2337   -0.7509 O   0  0  0  0  0  0  0  0  0  0  0  0
    3.4240   -2.5024    0.0804 O   0  0  0  0  0  0  0  0  0  0  0  0
   -0.0381   -1.5654   -0.4434 N   0  0  0  0  0  0  0  0  0  0  0  0
   -0.6031   -0.3199   -0.5322 C   0  0  0  0  0  0  0  0  0  0  0  0
   -2.0262   -0.1481   -0.7463 C   0  0  0  0  0  0  0  0  0  0  0  0
    0.4017    0.6106   -0.3847 C   0  0  0  0  0  0  0  0  0  0  0  0
    1.6132   -0.1006   -0.2002 C   0  0  0  0  0  0  0  0  0  0  0  0
   -2.9410   -0.0549    0.3152 C   0  0  0  0  0  0  0  0  0  0  0  0
    1.3118   -1.4440   -0.2408 C   0  0  0  0  0  0  0  0  0  0  0  0
   -4.3172    0.1121    0.0301 C   0  0  0  0  0  0  0  0  0  0  0  0
   -2.4619   -0.0776   -2.0697 C   0  0  0  0  0  0  0  0  0  0  0  0
   -2.5203   -0.1238    1.6533 C   0  0  0  0  0  0  0  0  0  0  0  0
   -4.7380    0.1810   -1.3080 C   0  0  0  0  0  0  0  0  0  0  0  0
    0.2157    2.0352   -0.4177 C   0  0  0  0  0  0  0  0  0  0  0  0
   -3.8151    0.0866   -2.3501 C   0  0  0  0  0  0  0  0  0  0  0  0
    2.9299    0.4399   -0.0044 C   0  0  0  0  0  0  0  0  0  0  0  0
   -5.2321    0.2053    1.0916 C   0  0  0  0  0  0  0  0  0  0  0  0
    2.1876   -2.5667   -0.1052 C   0  0  0  0  0  0  0  0  0  0  0  0
   -3.4431   -0.0294    2.6954 C   0  0  0  0  0  0  0  0  0  0  0  0
   -4.7964    0.1349    2.4151 C   0  0  0  0  0  0  0  0  0  0  0  0
    1.2606    4.1216   -0.9776 C   0  0  0  0  0  0  0  0  0  0  0  0
    4.2720    1.8271    1.4217 C   0  0  0  0  0  0  0  0  0  0  0  0
    2.2928   -4.9694   -0.0802 C   0  0  0  0  0  0  0  0  0  0  0  0
    2.5721    4.6425   -1.5258 C   0  0  0  0  0  0  0  0  0  0  0  0
    4.1388    2.6483    2.6866 C   0  0  0  0  0  0  0  0  0  0  0  0
    1.3708   -6.1625   -0.2143 C   0  0  0  0  0  0  0  0  0  0  0  0
   -0.5390   -2.4410   -0.5149 H   0  0  0  0  0  0  0  0  0  0  0  0
   -1.7593   -0.1486   -2.8972 H   0  0  0  0  0  0  0  0  0  0  0  0
   -1.4756   -0.2514    1.9250 H   0  0  0  0  0  0  0  0  0  0  0  0
   -5.7908    0.3092   -1.5505 H   0  0  0  0  0  0  0  0  0  0  0  0
   -4.1538    0.1415   -3.3806 H   0  0  0  0  0  0  0  0  0  0  0  0
   -6.2946    0.3339    0.8959 H   0  0  0  0  0  0  0  0  0  0  0  0
   -3.1050   -0.0841    3.7262 H   0  0  0  0  0  0  0  0  0  0  0  0
   -5.5142    0.2083    3.2269 H   0  0  0  0  0  0  0  0  0  0  0  0
    0.4381    4.4115   -1.6405 H   0  0  0  0  0  0  0  0  0  0  0  0
    1.0851    4.5337    0.0220 H   0  0  0  0  0  0  0  0  0  0  0  0
    5.0197    1.0397    1.5660 H   0  0  0  0  0  0  0  0  0  0  0  0
    4.5779    2.4706    0.5899 H   0  0  0  0  0  0  0  0  0  0  0  0
    3.0513   -4.9939   -0.8700 H   0  0  0  0  0  0  0  0  0  0  0  0
    2.7856   -4.9872    0.8979 H   0  0  0  0  0  0  0  0  0  0  0  0
    3.4044    4.3458   -0.8793 H   0  0  0  0  0  0  0  0  0  0  0  0
    2.7717    4.2184   -2.5154 H   0  0  0  0  0  0  0  0  0  0  0  0
    2.5575    5.7331   -1.6045 H   0  0  0  0  0  0  0  0  0  0  0  0
    3.3796    3.4274    2.5607 H   0  0  0  0  0  0  0  0  0  0  0  0
    5.0897    3.1204    2.9485 H   0  0  0  0  0  0  0  0  0  0  0  0
    3.8135    2.0194    3.5219 H   0  0  0  0  0  0  0  0  0  0  0  0
    0.5952   -6.1387    0.5583 H   0  0  0  0  0  0  0  0  0  0  0  0
    0.8567   -6.1454   -1.1810 H   0  0  0  0  0  0  0  0  0  0  0  0
    1.9281   -7.0993   -0.1269 H   0  0  0  0  0  0  0  0  0  0  0  0
  1 18  1  0  0  0  0
  1 25  1  0  0  0  0
  2 20  1  0  0  0  0
  2 26  1  0  0  0  0
  3 22  1  0  0  0  0
  3 27  1  0  0  0  0
  4 18  2  0  0  0  0
  5 20  2  0  0  0  0
  6 22  2  0  0  0  0
  7  8  1  0  0  0  0
  7 13  1  0  0  0  0
  7 31  1  0  0  0  0
  8  9  1  0  0  0  0
  8 10  2  0  0  0  0
  9 12  1  0  0  0  0
  9 15  2  0  0  0  0
 10 11  1  0  0  0  0
 10 18  1  0  0  0  0
 11 13  2  0  0  0  0
 11 20  1  0  0  0  0
 12 14  1  0  0  0  0
 12 16  2  0  0  0  0
 13 22  1  0  0  0  0
 14 17  1  0  0  0  0
 14 21  2  0  0  0  0
 15 19  1  0  0  0  0
 15 32  1  0  0  0  0
 16 23  1  0  0  0  0
 16 33  1  0  0  0  0
 17 19  2  0  0  0  0
 17 34  1  0  0  0  0
 19 35  1  0  0  0  0
 21 24  1  0  0  0  0
 21 36  1  0  0  0  0
 23 24  2  0  0  0  0
 23 37  1  0  0  0  0
 24 38  1  0  0  0  0
 25 28  1  0  0  0  0
 25 39  1  0  0  0  0
 25 40  1  0  0  0  0
 26 29  1  0  0  0  0
 26 41  1  0  0  0  0
 26 42  1  0  0  0  0
 27 30  1  0  0  0  0
 27 43  1  0  0  0  0
 27 44  1  0  0  0  0
 28 45  1  0  0  0  0
 28 46  1  0  0  0  0
 28 47  1  0  0  0  0
 29 48  1  0  0  0  0
 29 49  1  0  0  0  0
 29 50  1  0  0  0  0
 30 51  1  0  0  0  0
 30 52  1  0  0  0  0
 30 53  1  0  0  0  0
M  END
> <PUBCHEM_COMPOUND_CID>
102434453

> <PUBCHEM_CONFORMER_RMSD>
1

> <PUBCHEM_CONFORMER_DIVERSEORDER>
1
34
33
22
19
31
15
38
17
24
5
8
23
29
21
27
9
28
32
36
2
26
12
14
30
11
20
25
13
18
35
7
6
3
4
37
10
16

> <PUBCHEM_MMFF94_PARTIAL_CHARGES>
33
1 -0.43
10 -0.09
11 -0.09
13 -0.24
15 -0.15
16 -0.15
17 -0.15
18 0.81
19 -0.15
2 -0.43
20 0.81
21 -0.15
22 0.81
23 -0.15
24 -0.15
25 0.28
26 0.28
27 0.28
3 -0.43
31 0.27
32 0.15
33 0.15
34 0.15
35 0.15
36 0.15
37 0.15
38 0.15
4 -0.57
5 -0.57
6 -0.57
7 0.03
8 -0.2
9 0.05

> <PUBCHEM_EFFECTIVE_ROTOR_COUNT>
10

> <PUBCHEM_PHARMACOPHORE_FEATURES>
8
1 4 acceptor
1 5 acceptor
1 6 acceptor
1 7 cation
1 7 donor
5 7 8 10 11 13 rings
6 12 14 16 21 23 24 rings
6 9 12 14 15 17 19 rings

> <PUBCHEM_HEAVY_ATOM_COUNT>
30

> <PUBCHEM_ATOM_DEF_STEREO_COUNT>
0

> <PUBCHEM_ATOM_UDEF_STEREO_COUNT>
0

> <PUBCHEM_BOND_DEF_STEREO_COUNT>
0

> <PUBCHEM_BOND_UDEF_STEREO_COUNT>
0

> <PUBCHEM_ISOTOPIC_ATOM_COUNT>
0

> <PUBCHEM_COMPONENT_COUNT>
1

> <PUBCHEM_CACTVS_TAUTO_COUNT>
10

> <PUBCHEM_CONFORMER_ID>
061B069500000001

> <PUBCHEM_MMFF94_ENERGY>
67.2785

> <PUBCHEM_FEATURE_SELFOVERLAP>
40.625

> <PUBCHEM_SHAPE_FINGERPRINT>
11582403 64 16594156600074762767
11640471 11 17703520977543828929
12160290 23 17335901669598521966
12236239 1 17704070712114774789
12553582 1 18195251018189569382
12633257 1 17895481456856871721
12788726 201 17036686652900434699
13140716 1 18194683897848770344
13911987 19 18262244425173565812
13965767 371 17630634257355149561
14739800 52 16343117221970459402
14790565 3 18120951743497092484
14844126 61 17114082384265709815
15475509 84 17624713261989101560
1813 80 17912380727000489239
19311894 1 17545619197756711404
20101258 96 17906176152856685358
20511986 3 17489294305231121809
20739085 24 18341061709013368220
20775438 99 17255623752927683900
21133665 82 15168262212299430823
23559900 14 16733547109091965838
24893989 43 15005924298867649219
3886686 26 17620725699173517488
474 4 18269836574179803249
59025328 239 17837168672973319431
70251023 43 17978774732649384199
7288768 16 16767844381866823872

> <PUBCHEM_SHAPE_MULTIPOLES>
577.19
9.18
6.05
2.18
6.72
8.02
1.13
-3.16
3.8
-10.4
-1.72
1.82
-1.49
0.58

> <PUBCHEM_SHAPE_SELFOVERLAP>
1246.085

> <PUBCHEM_SHAPE_VOLUME>
318.9

> <PUBCHEM_COORDINATE_TYPE>
2
5
10

$$$$
