15003
  -OEChem-02172602503D

 56 58  0     1  0  0  0  0  0999 V2000
   -1.0436   -0.1060    0.0949 O   0  0  0  0  0  0  0  0  0  0  0  0
    1.0820    0.3758    1.6349 O   0  0  0  0  0  0  0  0  0  0  0  0
    0.0229    1.4692   -1.1972 O   0  0  0  0  0  0  0  0  0  0  0  0
   -4.7305   -0.1266   -0.3517 N   0  0  2  0  0  0  0  0  0  0  0  0
   -2.2952    0.2983   -0.4503 C   0  0  2  0  0  0  0  0  0  0  0  0
   -2.5223    1.7803   -0.1642 C   0  0  0  0  0  0  0  0  0  0  0  0
   -3.4170   -0.5609    0.1401 C   0  0  0  0  0  0  0  0  0  0  0  0
   -3.9190    2.1990   -0.6049 C   0  0  0  0  0  0  0  0  0  0  0  0
   -4.9875    1.2796   -0.0097 C   0  0  0  0  0  0  0  0  0  0  0  0
   -5.7873   -0.9852    0.1825 C   0  0  0  0  0  0  0  0  0  0  0  0
    1.3384    0.0111    0.2634 C   0  0  0  0  0  0  0  0  0  0  0  0
    0.0598    0.5682   -0.3677 C   0  0  0  0  0  0  0  0  0  0  0  0
   -7.1487   -0.5807   -0.3572 C   0  0  0  0  0  0  0  0  0  0  0  0
    2.6211    0.6832   -0.2322 C   0  0  0  0  0  0  0  0  0  0  0  0
    1.4397   -1.5114    0.1464 C   0  0  0  0  0  0  0  0  0  0  0  0
    2.7127    1.0274   -1.5611 C   0  0  0  0  0  0  0  0  0  0  0  0
    1.9434   -2.2217    1.2117 C   0  0  0  0  0  0  0  0  0  0  0  0
    3.6327    0.9176    0.6701 C   0  0  0  0  0  0  0  0  0  0  0  0
    1.0229   -2.1117   -1.0194 C   0  0  0  0  0  0  0  0  0  0  0  0
    0.9306    1.7757    1.7611 C   0  0  0  0  0  0  0  0  0  0  0  0
    3.8815    1.6401   -2.0130 C   0  0  0  0  0  0  0  0  0  0  0  0
    2.0356   -3.6095    1.1052 C   0  0  0  0  0  0  0  0  0  0  0  0
    4.8015    1.5305    0.2183 C   0  0  0  0  0  0  0  0  0  0  0  0
    1.1151   -3.4995   -1.1257 C   0  0  0  0  0  0  0  0  0  0  0  0
    0.6638    2.1141    3.2123 C   0  0  0  0  0  0  0  0  0  0  0  0
    4.9258    1.8916   -1.1234 C   0  0  0  0  0  0  0  0  0  0  0  0
    1.6214   -4.2483   -0.0633 C   0  0  0  0  0  0  0  0  0  0  0  0
   -2.2674    0.1308   -1.5361 H   0  0  0  0  0  0  0  0  0  0  0  0
   -1.8222    2.4541   -0.6591 H   0  0  0  0  0  0  0  0  0  0  0  0
   -2.4049    1.9670    0.9116 H   0  0  0  0  0  0  0  0  0  0  0  0
   -3.2322   -1.6059   -0.1410 H   0  0  0  0  0  0  0  0  0  0  0  0
   -3.3699   -0.5298    1.2376 H   0  0  0  0  0  0  0  0  0  0  0  0
   -3.9804    2.1756   -1.7005 H   0  0  0  0  0  0  0  0  0  0  0  0
   -4.1096    3.2331   -0.2955 H   0  0  0  0  0  0  0  0  0  0  0  0
   -5.0289    1.4175    1.0789 H   0  0  0  0  0  0  0  0  0  0  0  0
   -5.9394    1.6271   -0.4233 H   0  0  0  0  0  0  0  0  0  0  0  0
   -5.5974   -2.0206   -0.1259 H   0  0  0  0  0  0  0  0  0  0  0  0
   -5.8079   -0.9712    1.2796 H   0  0  0  0  0  0  0  0  0  0  0  0
   -7.5349    0.3272    0.1162 H   0  0  0  0  0  0  0  0  0  0  0  0
   -7.1306   -0.4385   -1.4432 H   0  0  0  0  0  0  0  0  0  0  0  0
   -7.8745   -1.3741   -0.1455 H   0  0  0  0  0  0  0  0  0  0  0  0
    1.9513    0.7916   -2.2958 H   0  0  0  0  0  0  0  0  0  0  0  0
    2.2799   -1.7443    2.1263 H   0  0  0  0  0  0  0  0  0  0  0  0
    3.5716    0.6234    1.7132 H   0  0  0  0  0  0  0  0  0  0  0  0
    0.6377   -1.5471   -1.8623 H   0  0  0  0  0  0  0  0  0  0  0  0
    0.0647    2.1704    1.2237 H   0  0  0  0  0  0  0  0  0  0  0  0
    1.8031    2.3557    1.4533 H   0  0  0  0  0  0  0  0  0  0  0  0
    3.9849    1.9077   -3.0606 H   0  0  0  0  0  0  0  0  0  0  0  0
    2.4321   -4.1926    1.9314 H   0  0  0  0  0  0  0  0  0  0  0  0
    5.6175    1.7205    0.9094 H   0  0  0  0  0  0  0  0  0  0  0  0
    0.7954   -3.9969   -2.0368 H   0  0  0  0  0  0  0  0  0  0  0  0
   -0.2335    1.5984    3.5706 H   0  0  0  0  0  0  0  0  0  0  0  0
    0.5276    3.1911    3.3473 H   0  0  0  0  0  0  0  0  0  0  0  0
    1.4953    1.7832    3.8433 H   0  0  0  0  0  0  0  0  0  0  0  0
    5.8378    2.3642   -1.4761 H   0  0  0  0  0  0  0  0  0  0  0  0
    1.6944   -5.3287   -0.1468 H   0  0  0  0  0  0  0  0  0  0  0  0
  1  5  1  0  0  0  0
  1 12  1  0  0  0  0
  2 11  1  0  0  0  0
  2 20  1  0  0  0  0
  3 12  2  0  0  0  0
  4  7  1  0  0  0  0
  4  9  1  0  0  0  0
  4 10  1  0  0  0  0
  5  6  1  0  0  0  0
  5  7  1  0  0  0  0
  5 28  1  0  0  0  0
  6  8  1  0  0  0  0
  6 29  1  0  0  0  0
  6 30  1  0  0  0  0
  7 31  1  0  0  0  0
  7 32  1  0  0  0  0
  8  9  1  0  0  0  0
  8 33  1  0  0  0  0
  8 34  1  0  0  0  0
  9 35  1  0  0  0  0
  9 36  1  0  0  0  0
 10 13  1  0  0  0  0
 10 37  1  0  0  0  0
 10 38  1  0  0  0  0
 11 12  1  0  0  0  0
 11 14  1  0  0  0  0
 11 15  1  0  0  0  0
 13 39  1  0  0  0  0
 13 40  1  0  0  0  0
 13 41  1  0  0  0  0
 14 16  2  0  0  0  0
 14 18  1  0  0  0  0
 15 17  2  0  0  0  0
 15 19  1  0  0  0  0
 16 21  1  0  0  0  0
 16 42  1  0  0  0  0
 17 22  1  0  0  0  0
 17 43  1  0  0  0  0
 18 23  2  0  0  0  0
 18 44  1  0  0  0  0
 19 24  2  0  0  0  0
 19 45  1  0  0  0  0
 20 25  1  0  0  0  0
 20 46  1  0  0  0  0
 20 47  1  0  0  0  0
 21 26  2  0  0  0  0
 21 48  1  0  0  0  0
 22 27  2  0  0  0  0
 22 49  1  0  0  0  0
 23 26  1  0  0  0  0
 23 50  1  0  0  0  0
 24 27  1  0  0  0  0
 24 51  1  0  0  0  0
 25 52  1  0  0  0  0
 25 53  1  0  0  0  0
 25 54  1  0  0  0  0
 26 55  1  0  0  0  0
 27 56  1  0  0  0  0
M  END
> <PUBCHEM_COMPOUND_CID>
15003

> <PUBCHEM_CONFORMER_RMSD>
1

> <PUBCHEM_CONFORMER_DIVERSEORDER>
1
19
14
53
61
71
16
49
12
54
65
15
7
78
62
68
43
35
33
29
69
39
27
20
40
36
3
42
73
66
50
47
45
22
64
37
28
32
13
77
41
21
34
63
74
23
11
44
51
38
57
59
4
18
56
76
6
30
52
8
67
70
2
72
58
24
60
31
75
48
25
17
26
46
55
10
79
9
5

> <PUBCHEM_MMFF94_PARTIAL_CHARGES>
33
1 -0.43
10 0.27
11 0.63
12 0.66
14 -0.14
15 -0.14
16 -0.15
17 -0.15
18 -0.15
19 -0.15
2 -0.56
20 0.28
21 -0.15
22 -0.15
23 -0.15
24 -0.15
26 -0.15
27 -0.15
3 -0.57
4 -0.81
42 0.15
43 0.15
44 0.15
45 0.15
48 0.15
49 0.15
5 0.28
50 0.15
51 0.15
55 0.15
56 0.15
7 0.27
9 0.27

> <PUBCHEM_EFFECTIVE_ROTOR_COUNT>
9.2

> <PUBCHEM_PHARMACOPHORE_FEATURES>
6
1 2 acceptor
1 3 acceptor
1 4 cation
6 14 16 18 21 23 26 rings
6 15 17 19 22 24 27 rings
6 4 5 6 7 8 9 rings

> <PUBCHEM_HEAVY_ATOM_COUNT>
27

> <PUBCHEM_ATOM_DEF_STEREO_COUNT>
0

> <PUBCHEM_ATOM_UDEF_STEREO_COUNT>
1

> <PUBCHEM_BOND_DEF_STEREO_COUNT>
0

> <PUBCHEM_BOND_UDEF_STEREO_COUNT>
0

> <PUBCHEM_ISOTOPIC_ATOM_COUNT>
0

> <PUBCHEM_COMPONENT_COUNT>
1

> <PUBCHEM_CACTVS_TAUTO_COUNT>
1

> <PUBCHEM_CONFORMER_ID>
00003A9B00000001

> <PUBCHEM_MMFF94_ENERGY>
81.6027

> <PUBCHEM_FEATURE_SELFOVERLAP>
30.447

> <PUBCHEM_SHAPE_FINGERPRINT>
10165383 225 18339923817700591196
10366900 7 18342738559468223945
10906281 52 17822872956075197565
11421498 54 18343311340006219625
11488393 25 18057348135535941950
11578080 2 16595118578296663400
11963148 33 18261668298598934443
12107183 9 17690000038428645713
12236239 1 17603299380217682941
12293681 160 17988654016713618712
12422481 6 17973131012736475562
12592029 89 18259705584432243888
12788726 201 17395308261794870510
12977781 61 17168730577682543458
131258 43 17486218812537438918
13149001 5 17771632531718635152
13257819 37 18117300218521048302
133893 2 17901977174311966378
13533116 47 18342731889753589803
13583140 156 18059273406671779181
140371 6 17337315173553530111
14790565 3 18263932201076182164
14863182 85 18334019397246354030
15131766 46 13697859496632815844
15537594 2 18201437013232297543
15849732 13 18113333129513675500
17492 89 18265331712565491703
1813 80 17689437083710881598
18222031 100 8070036579437801568
18681886 176 18116715316436440884
19319366 153 18413101779611765134
20197701 30 18410293636178936646
20465049 17 17917153900270811127
20567600 347 18335707152164406694
20600515 1 17403163808223293678
20691752 17 17096094558807487169
20771845 140 17274814732164017214
21054139 6 18267861855949975119
21344244 181 17774181083586709150
21344244 246 18268723727570520286
21421861 104 18126575517628163027
21521721 280 18198351834326915352
22149856 69 18336844030703626945
22956985 138 17971180440307155650
23419403 2 17116587132230407480
23559900 14 18122616159456499647
298252 57 18042129915639119632
3493558 16 13341236322134564011
394222 165 18333448725527089330
404807 78 17972883837469564475
4340502 62 18342174492364376054
44802255 64 17681590183499479734
5104073 3 18265056843411506497
57359948 33 17822283549629415231
57527306 92 17023457672582485932
59755656 520 18338513153557469764
6442390 28 18339919432575632396
6669772 16 17774145933948332768
70251023 43 17771647675383210126
81228 2 17261011742108115722
9709674 26 18260834744288264683

> <PUBCHEM_SHAPE_MULTIPOLES>
533.06
11.2
3.96
1.79
20.17
5.18
1.07
-3.83
-2.95
-3.54
0.29
-1.75
-1.1
-0.66

> <PUBCHEM_SHAPE_SELFOVERLAP>
1133.049

> <PUBCHEM_SHAPE_VOLUME>
295.7

> <PUBCHEM_COORDINATE_TYPE>
2
5
10

$$$$
