114631
  -OEChem-02172602523D

 58 59  0     1  0  0  0  0  0999 V2000
   -0.8994    0.3608   -1.3846 O   0  0  0  0  0  0  0  0  0  0  0  0
    2.8557    0.1263    0.2481 O   0  0  0  0  0  0  0  0  0  0  0  0
   -4.5228    2.4826   -0.6829 O   0  0  0  0  0  0  0  0  0  0  0  0
    1.1313   -1.0603    1.1933 O   0  0  0  0  0  0  0  0  0  0  0  0
   -5.6139    1.1206   -2.1198 O   0  0  0  0  0  0  0  0  0  0  0  0
    0.8562    1.1287    0.4739 N   0  0  0  0  0  0  0  0  0  0  0  0
   -2.7304    0.7029    0.0011 N   0  0  0  0  0  0  0  0  0  0  0  0
   -0.8956    2.7533    1.1852 C   0  0  2  0  0  0  0  0  0  0  0  0
   -0.5317    1.2926    0.8253 C   0  0  1  0  0  0  0  0  0  0  0  0
   -0.7322    3.7097   -0.0170 C   0  0  0  0  0  0  0  0  0  0  0  0
   -0.0748    3.2196    2.3949 C   0  0  0  0  0  0  0  0  0  0  0  0
   -1.3811    0.7437   -0.3203 C   0  0  0  0  0  0  0  0  0  0  0  0
   -3.7440    0.1957   -0.8956 C   0  0  1  0  0  0  0  0  0  0  0  0
   -1.1797    5.1358    0.2767 C   0  0  0  0  0  0  0  0  0  0  0  0
   -4.5082   -0.9738   -0.2614 C   0  0  0  0  0  0  0  0  0  0  0  0
   -3.6091   -2.1213    0.1312 C   0  0  0  0  0  0  0  0  0  0  0  0
    1.5715   -0.0333    0.6871 C   0  0  0  0  0  0  0  0  0  0  0  0
   -4.7167    1.2932   -1.3013 C   0  0  0  0  0  0  0  0  0  0  0  0
   -3.3455   -3.1441   -0.7801 C   0  0  0  0  0  0  0  0  0  0  0  0
   -3.0415   -2.1587    1.4049 C   0  0  0  0  0  0  0  0  0  0  0  0
    3.7157   -1.0075    0.4079 C   0  0  0  0  0  0  0  0  0  0  0  0
   -2.5147   -4.2042   -0.4176 C   0  0  0  0  0  0  0  0  0  0  0  0
   -2.2105   -3.2188    1.7672 C   0  0  0  0  0  0  0  0  0  0  0  0
   -1.9472   -4.2416    0.8559 C   0  0  0  0  0  0  0  0  0  0  0  0
    5.0782   -0.6671   -0.1205 C   0  0  0  0  0  0  0  0  0  0  0  0
    5.3874   -0.9083   -1.4592 C   0  0  0  0  0  0  0  0  0  0  0  0
    6.0357   -0.1090    0.7266 C   0  0  0  0  0  0  0  0  0  0  0  0
    6.6538   -0.5918   -1.9506 C   0  0  0  0  0  0  0  0  0  0  0  0
    7.3021    0.2077    0.2351 C   0  0  0  0  0  0  0  0  0  0  0  0
    7.6111   -0.0338   -1.1035 C   0  0  0  0  0  0  0  0  0  0  0  0
   -1.9497    2.7855    1.4888 H   0  0  0  0  0  0  0  0  0  0  0  0
   -0.7314    0.6531    1.6961 H   0  0  0  0  0  0  0  0  0  0  0  0
    0.3114    3.7397   -0.3496 H   0  0  0  0  0  0  0  0  0  0  0  0
   -1.3238    3.3435   -0.8638 H   0  0  0  0  0  0  0  0  0  0  0  0
    0.9799    3.3612    2.1373 H   0  0  0  0  0  0  0  0  0  0  0  0
   -0.4556    4.1666    2.7900 H   0  0  0  0  0  0  0  0  0  0  0  0
   -0.1316    2.4880    3.2083 H   0  0  0  0  0  0  0  0  0  0  0  0
    1.3353    1.8849   -0.0045 H   0  0  0  0  0  0  0  0  0  0  0  0
   -3.2538   -0.1360   -1.8190 H   0  0  0  0  0  0  0  0  0  0  0  0
   -3.0385    1.0437    0.9065 H   0  0  0  0  0  0  0  0  0  0  0  0
   -0.5256    5.6218    1.0063 H   0  0  0  0  0  0  0  0  0  0  0  0
   -1.1490    5.7335   -0.6403 H   0  0  0  0  0  0  0  0  0  0  0  0
   -2.2054    5.1554    0.6583 H   0  0  0  0  0  0  0  0  0  0  0  0
   -5.2810   -1.3394   -0.9507 H   0  0  0  0  0  0  0  0  0  0  0  0
   -5.0576   -0.6286    0.6257 H   0  0  0  0  0  0  0  0  0  0  0  0
   -3.7800   -3.1245   -1.7759 H   0  0  0  0  0  0  0  0  0  0  0  0
   -3.2395   -1.3699    2.1257 H   0  0  0  0  0  0  0  0  0  0  0  0
    3.7782   -1.2780    1.4694 H   0  0  0  0  0  0  0  0  0  0  0  0
    3.3021   -1.8655   -0.1367 H   0  0  0  0  0  0  0  0  0  0  0  0
   -2.3087   -5.0001   -1.1273 H   0  0  0  0  0  0  0  0  0  0  0  0
   -1.7681   -3.2476    2.7586 H   0  0  0  0  0  0  0  0  0  0  0  0
   -5.1729    3.1576   -0.9728 H   0  0  0  0  0  0  0  0  0  0  0  0
   -1.2997   -5.0666    1.1379 H   0  0  0  0  0  0  0  0  0  0  0  0
    4.6492   -1.3405   -2.1296 H   0  0  0  0  0  0  0  0  0  0  0  0
    5.8062    0.0857    1.7709 H   0  0  0  0  0  0  0  0  0  0  0  0
    6.8944   -0.7791   -2.9931 H   0  0  0  0  0  0  0  0  0  0  0  0
    8.0476    0.6428    0.8944 H   0  0  0  0  0  0  0  0  0  0  0  0
    8.5971    0.2130   -1.4863 H   0  0  0  0  0  0  0  0  0  0  0  0
  1 12  2  0  0  0  0
  2 17  1  0  0  0  0
  2 21  1  0  0  0  0
  3 18  1  0  0  0  0
  3 52  1  0  0  0  0
  4 17  2  0  0  0  0
  5 18  2  0  0  0  0
  6  9  1  0  0  0  0
  6 17  1  0  0  0  0
  6 38  1  0  0  0  0
  7 12  1  0  0  0  0
  7 13  1  0  0  0  0
  7 40  1  0  0  0  0
  8  9  1  0  0  0  0
  8 10  1  0  0  0  0
  8 11  1  0  0  0  0
  8 31  1  0  0  0  0
  9 12  1  0  0  0  0
  9 32  1  0  0  0  0
 10 14  1  0  0  0  0
 10 33  1  0  0  0  0
 10 34  1  0  0  0  0
 11 35  1  0  0  0  0
 11 36  1  0  0  0  0
 11 37  1  0  0  0  0
 13 15  1  0  0  0  0
 13 18  1  0  0  0  0
 13 39  1  0  0  0  0
 14 41  1  0  0  0  0
 14 42  1  0  0  0  0
 14 43  1  0  0  0  0
 15 16  1  0  0  0  0
 15 44  1  0  0  0  0
 15 45  1  0  0  0  0
 16 19  2  0  0  0  0
 16 20  1  0  0  0  0
 19 22  1  0  0  0  0
 19 46  1  0  0  0  0
 20 23  2  0  0  0  0
 20 47  1  0  0  0  0
 21 25  1  0  0  0  0
 21 48  1  0  0  0  0
 21 49  1  0  0  0  0
 22 24  2  0  0  0  0
 22 50  1  0  0  0  0
 23 24  1  0  0  0  0
 23 51  1  0  0  0  0
 24 53  1  0  0  0  0
 25 26  2  0  0  0  0
 25 27  1  0  0  0  0
 26 28  1  0  0  0  0
 26 54  1  0  0  0  0
 27 29  2  0  0  0  0
 27 55  1  0  0  0  0
 28 30  2  0  0  0  0
 28 56  1  0  0  0  0
 29 30  1  0  0  0  0
 29 57  1  0  0  0  0
 30 58  1  0  0  0  0
M  END
> <PUBCHEM_COMPOUND_CID>
114631

> <PUBCHEM_CONFORMER_RMSD>
1.2

> <PUBCHEM_CONFORMER_DIVERSEORDER>
1
71
49
33
114
81
89
99
86
18
61
27
21
101
80
52
127
116
31
36
51
129
122
115
5
135
65
13
131
64
45
78
73
11
120
123
109
57
7
77
30
38
68
62
92
28
20
93
82
53
106
97
63
43
104
35
69
94
113
48
102
44
112
32
14
25
12
15
118
66
85
2
55
88
4
107
74
119
19
121
91
83
42
76
96
125
10
72
3
56
95
67
90
29
26
41
111
130
98
23
46
100
110
24
6
124
126
134
16
8
133
75
37
34
54
79
59
39
128
105
70
9
87
17
108
132
84
117
58
22
103
60
47
50
40

> <PUBCHEM_MMFF94_PARTIAL_CHARGES>
39
1 -0.57
12 0.57
13 0.36
15 0.14
16 -0.14
17 0.78
18 0.66
19 -0.15
2 -0.43
20 -0.15
21 0.42
22 -0.15
23 -0.15
24 -0.15
25 -0.14
26 -0.15
27 -0.15
28 -0.15
29 -0.15
3 -0.65
30 -0.15
38 0.37
4 -0.57
40 0.37
46 0.15
47 0.15
5 -0.57
50 0.15
51 0.15
52 0.5
53 0.15
54 0.15
55 0.15
56 0.15
57 0.15
58 0.15
6 -0.73
7 -0.73
9 0.36

> <PUBCHEM_EFFECTIVE_ROTOR_COUNT>
13

> <PUBCHEM_PHARMACOPHORE_FEATURES>
11
1 1 acceptor
1 11 hydrophobe
1 14 hydrophobe
1 3 acceptor
1 4 acceptor
1 5 acceptor
1 6 donor
1 7 donor
3 3 5 18 anion
6 16 19 20 22 23 24 rings
6 25 26 27 28 29 30 rings

> <PUBCHEM_HEAVY_ATOM_COUNT>
30

> <PUBCHEM_ATOM_DEF_STEREO_COUNT>
3

> <PUBCHEM_ATOM_UDEF_STEREO_COUNT>
0

> <PUBCHEM_BOND_DEF_STEREO_COUNT>
0

> <PUBCHEM_BOND_UDEF_STEREO_COUNT>
0

> <PUBCHEM_ISOTOPIC_ATOM_COUNT>
0

> <PUBCHEM_COMPONENT_COUNT>
1

> <PUBCHEM_CACTVS_TAUTO_COUNT>
4

> <PUBCHEM_CONFORMER_ID>
0001BFC700000001

> <PUBCHEM_MMFF94_ENERGY>
63.5623

> <PUBCHEM_FEATURE_SELFOVERLAP>
55.882

> <PUBCHEM_SHAPE_FINGERPRINT>
10940486 97 18259982708322708957
11056379 131 18340495456821167216
11200772 48 18408319969593804583
11488393 25 17835247018658139864
12788726 201 18267858398152758913
13690498 29 18262518225186396103
13911987 19 18189885436527849933
14251757 5 18408042913679654922
14674994 50 17703221940135109255
16114785 44 17842861948503109265
19958102 18 18192147101538334414
20771845 35 17414416600969272395
23559900 14 18340477945965370520
238078 22 18409730672871089170
249057 3 18186518817416802973
255183 451 18127961113465937429
2838139 119 15430034362273694246
4280585 95 18337946887509649896
437815 12 18131068281359136787
5171179 24 18052811739331726155
5265222 85 18259987097842302703
58902169 19 17458346338954575414

> <PUBCHEM_SHAPE_MULTIPOLES>
578.08
15.68
5.51
1.72
35.2
1.97
0.02
-5.15
-8.08
-8.67
1.83
-0.3
0.22
1.96

> <PUBCHEM_SHAPE_SELFOVERLAP>
1194.984

> <PUBCHEM_SHAPE_VOLUME>
328.4

> <PUBCHEM_COORDINATE_TYPE>
2
5
10

$$$$
