76098
  -OEChem-02172602473D

 26 28  0     0  0  0  0  0  0999 V2000
    4.0001    0.3489    0.1119 O   0  0  0  0  0  0  0  0  0  0  0  0
    1.2448   -0.1965    0.0107 N   0  0  0  0  0  0  0  0  0  0  0  0
   -1.1631    1.7182   -0.2489 N   0  0  0  0  0  0  0  0  0  0  0  0
   -0.4841   -1.8651    0.2251 N   0  0  0  0  0  0  0  0  0  0  0  0
   -3.2940    1.0690   -0.1701 N   0  0  0  0  0  0  0  0  0  0  0  0
   -2.8564   -1.3017    0.1437 N   0  0  0  0  0  0  0  0  0  0  0  0
    2.2142   -1.1696   -0.5113 C   0  0  0  0  0  0  0  0  0  0  0  0
    1.7777    0.7466    1.0000 C   0  0  0  0  0  0  0  0  0  0  0  0
    3.4815   -0.4471   -0.9537 C   0  0  0  0  0  0  0  0  0  0  0  0
    3.0688    1.3666    0.4773 C   0  0  0  0  0  0  0  0  0  0  0  0
   -0.1033   -0.5666    0.0553 C   0  0  0  0  0  0  0  0  0  0  0  0
   -1.1318    0.3644   -0.0706 C   0  0  0  0  0  0  0  0  0  0  0  0
   -2.4665   -0.0151   -0.0249 C   0  0  0  0  0  0  0  0  0  0  0  0
   -2.4793    2.0940   -0.3025 C   0  0  0  0  0  0  0  0  0  0  0  0
   -1.8086   -2.1460    0.2581 C   0  0  0  0  0  0  0  0  0  0  0  0
    1.8007   -1.7181   -1.3658 H   0  0  0  0  0  0  0  0  0  0  0  0
    2.4529   -1.8913    0.2795 H   0  0  0  0  0  0  0  0  0  0  0  0
    1.9828    0.1949    1.9260 H   0  0  0  0  0  0  0  0  0  0  0  0
    1.0715    1.5455    1.2434 H   0  0  0  0  0  0  0  0  0  0  0  0
    4.2485   -1.1760   -1.2339 H   0  0  0  0  0  0  0  0  0  0  0  0
    3.2941    0.1902   -1.8264 H   0  0  0  0  0  0  0  0  0  0  0  0
    2.8790    2.0153   -0.3864 H   0  0  0  0  0  0  0  0  0  0  0  0
    3.5305    1.9798    1.2576 H   0  0  0  0  0  0  0  0  0  0  0  0
   -0.3662    2.3341   -0.3405 H   0  0  0  0  0  0  0  0  0  0  0  0
   -2.7731    3.1246   -0.4410 H   0  0  0  0  0  0  0  0  0  0  0  0
   -2.0610   -3.1919    0.3951 H   0  0  0  0  0  0  0  0  0  0  0  0
  1  9  1  0  0  0  0
  1 10  1  0  0  0  0
  2  7  1  0  0  0  0
  2  8  1  0  0  0  0
  2 11  1  0  0  0  0
  3 12  1  0  0  0  0
  3 14  1  0  0  0  0
  3 24  1  0  0  0  0
  4 11  2  0  0  0  0
  4 15  1  0  0  0  0
  5 13  1  0  0  0  0
  5 14  2  0  0  0  0
  6 13  1  0  0  0  0
  6 15  2  0  0  0  0
  7  9  1  0  0  0  0
  7 16  1  0  0  0  0
  7 17  1  0  0  0  0
  8 10  1  0  0  0  0
  8 18  1  0  0  0  0
  8 19  1  0  0  0  0
  9 20  1  0  0  0  0
  9 21  1  0  0  0  0
 10 22  1  0  0  0  0
 10 23  1  0  0  0  0
 11 12  1  0  0  0  0
 12 13  2  0  0  0  0
 14 25  1  0  0  0  0
 15 26  1  0  0  0  0
M  END
> <PUBCHEM_COMPOUND_CID>
76098

> <PUBCHEM_CONFORMER_RMSD>
0.6

> <PUBCHEM_CONFORMER_DIVERSEORDER>
1
5
3
4
6
2

> <PUBCHEM_MMFF94_PARTIAL_CHARGES>
18
1 -0.56
10 0.28
11 0.41
12 -0.15
13 0.48
14 0.04
15 0.47
2 -0.84
24 0.27
25 0.15
26 0.15
3 0.03
4 -0.62
5 -0.57
6 -0.57
7 0.37
8 0.37
9 0.28

> <PUBCHEM_EFFECTIVE_ROTOR_COUNT>
2.2

> <PUBCHEM_PHARMACOPHORE_FEATURES>
8
1 1 acceptor
1 3 donor
3 2 4 11 cation
3 3 5 14 cation
3 4 6 15 cation
5 3 5 12 13 14 rings
6 1 2 7 8 9 10 rings
6 4 6 11 12 13 15 rings

> <PUBCHEM_HEAVY_ATOM_COUNT>
15

> <PUBCHEM_ATOM_DEF_STEREO_COUNT>
0

> <PUBCHEM_ATOM_UDEF_STEREO_COUNT>
0

> <PUBCHEM_BOND_DEF_STEREO_COUNT>
0

> <PUBCHEM_BOND_UDEF_STEREO_COUNT>
0

> <PUBCHEM_ISOTOPIC_ATOM_COUNT>
0

> <PUBCHEM_COMPONENT_COUNT>
1

> <PUBCHEM_CACTVS_TAUTO_COUNT>
4

> <PUBCHEM_CONFORMER_ID>
0001294200000001

> <PUBCHEM_MMFF94_ENERGY>
39.7257

> <PUBCHEM_FEATURE_SELFOVERLAP>
40.834

> <PUBCHEM_SHAPE_FINGERPRINT>
10608611 8 18341891922229267416
10922523 26 18272373087728533198
11132069 177 18410570725345392993
12173636 292 18336825295254597189
12716758 59 18410294692097397659
13380535 21 18338524044787689642
13380535 76 18340482283681684286
13764800 53 18261398836238457881
14325111 11 18410855438806345100
14614273 12 18040985216428112727
15219456 202 18273216421657882978
15279308 100 18339644438820596532
15775835 57 18187928322345418312
16945 1 18335699481178502299
17844478 74 18339651147269473107
18186145 218 18201164239210234696
19049666 15 18271529697806567042
200 152 17132110247259294199
20201158 50 18131072610712492998
20279233 1 18272932726230618022
20510252 161 18412828005822028921
20645477 56 18409169895944584360
20645477 70 17346604028437339790
20871998 184 18342462598876463599
21501502 16 18410005507802343554
21524375 3 18118681020172934599
22802520 49 18343589520763638590
23402539 116 18338503252808876862
23557571 272 18269849746944415350
23559900 14 18270964532341292950
25 1 18126849296028850957
2748010 2 18411979191313916327
4028521 119 18336536149619218165
6049 1 18271820050512151602
6333449 129 18410854369417517215
69090 78 18272928328131541527
7364860 26 18194397780260624978
77492 1 17095239241750693178
81228 2 18262519328908205283
8809292 202 18411986840798519482
9709674 26 18341898502145792214

> <PUBCHEM_SHAPE_MULTIPOLES>
277.92
6.11
2.1
0.78
3.28
0.12
-0.01
-1.19
0.53
-1.41
-0.04
0.4
-0.04
0.79

> <PUBCHEM_SHAPE_SELFOVERLAP>
604.25

> <PUBCHEM_SHAPE_VOLUME>
149.1

> <PUBCHEM_COORDINATE_TYPE>
2
5
10

$$$$
