102213766
  -OEChem-02172602523D

 43 44  0     1  0  0  0  0  0999 V2000
   -2.2257   -1.1173   -0.1768 O   0  0  0  0  0  0  0  0  0  0  0  0
   -2.9477   -0.5390    1.9311 O   0  0  0  0  0  0  0  0  0  0  0  0
   -1.9601   -2.4497    0.2681 C   0  0  2  0  0  0  0  0  0  0  0  0
   -0.7709   -2.9854   -0.5146 C   0  0  0  0  0  0  0  0  0  0  0  0
   -3.2650   -3.2418    0.1705 C   0  0  0  0  0  0  0  0  0  0  0  0
    0.5041   -2.2629   -0.4547 C   0  0  0  0  0  0  0  0  0  0  0  0
    2.0607   -0.4401    0.2356 C   0  0  0  0  0  0  0  0  0  0  0  0
    0.7568   -1.1275    0.2188 C   0  0  0  0  0  0  0  0  0  0  0  0
   -2.7172   -0.2686    0.7627 C   0  0  0  0  0  0  0  0  0  0  0  0
   -2.9495    1.0758    0.1769 C   0  0  0  0  0  0  0  0  0  0  0  0
    3.2203   -1.1356   -0.1066 C   0  0  0  0  0  0  0  0  0  0  0  0
    2.1347    0.9060    0.5941 C   0  0  0  0  0  0  0  0  0  0  0  0
    4.5282    0.8608    0.2684 C   0  0  0  0  0  0  0  0  0  0  0  0
   -0.8253   -4.1126   -1.2483 C   0  0  0  0  0  0  0  0  0  0  0  0
    4.4540   -0.4851   -0.0903 C   0  0  0  0  0  0  0  0  0  0  0  0
    3.3685    1.5563    0.6105 C   0  0  0  0  0  0  0  0  0  0  0  0
   -3.9643    1.8906    0.6789 C   0  0  0  0  0  0  0  0  0  0  0  0
   -2.1521    1.5239   -0.8761 C   0  0  0  0  0  0  0  0  0  0  0  0
   -4.1817    3.1536    0.1278 C   0  0  0  0  0  0  0  0  0  0  0  0
   -2.3694    2.7868   -1.4271 C   0  0  0  0  0  0  0  0  0  0  0  0
   -3.3843    3.6015   -0.9252 C   0  0  0  0  0  0  0  0  0  0  0  0
    5.8147    1.5387    0.2861 C   0  0  0  0  0  0  0  0  0  0  0  0
    6.8708    1.2716   -0.5099 C   0  0  0  0  0  0  0  0  0  0  0  0
   -1.6578   -2.4491    1.3253 H   0  0  0  0  0  0  0  0  0  0  0  0
   -3.6452   -3.2534   -0.8574 H   0  0  0  0  0  0  0  0  0  0  0  0
   -3.1392   -4.2725    0.5171 H   0  0  0  0  0  0  0  0  0  0  0  0
   -4.0486   -2.7793    0.7805 H   0  0  0  0  0  0  0  0  0  0  0  0
    1.2877   -2.7066   -1.0652 H   0  0  0  0  0  0  0  0  0  0  0  0
   -0.0006   -0.6527    0.8315 H   0  0  0  0  0  0  0  0  0  0  0  0
    3.2180   -2.1902   -0.3650 H   0  0  0  0  0  0  0  0  0  0  0  0
    1.2405    1.4641    0.8614 H   0  0  0  0  0  0  0  0  0  0  0  0
   -1.7265   -4.7077   -1.3383 H   0  0  0  0  0  0  0  0  0  0  0  0
    0.0381   -4.4842   -1.7931 H   0  0  0  0  0  0  0  0  0  0  0  0
    5.3409   -1.0606   -0.3433 H   0  0  0  0  0  0  0  0  0  0  0  0
    3.4076    2.6062    0.8909 H   0  0  0  0  0  0  0  0  0  0  0  0
   -4.5960    1.5548    1.4971 H   0  0  0  0  0  0  0  0  0  0  0  0
   -1.3470    0.9164   -1.2804 H   0  0  0  0  0  0  0  0  0  0  0  0
   -4.9722    3.7878    0.5183 H   0  0  0  0  0  0  0  0  0  0  0  0
   -1.7467    3.1371   -2.2451 H   0  0  0  0  0  0  0  0  0  0  0  0
   -3.5531    4.5850   -1.3540 H   0  0  0  0  0  0  0  0  0  0  0  0
    5.9131    2.3563    0.9972 H   0  0  0  0  0  0  0  0  0  0  0  0
    7.7804    1.8557   -0.4141 H   0  0  0  0  0  0  0  0  0  0  0  0
    6.8533    0.4950   -1.2660 H   0  0  0  0  0  0  0  0  0  0  0  0
  1  3  1  0  0  0  0
  1  9  1  0  0  0  0
  2  9  2  0  0  0  0
  3  4  1  0  0  0  0
  3  5  1  0  0  0  0
  3 24  1  0  0  0  0
  4  6  1  0  0  0  0
  4 14  2  0  0  0  0
  5 25  1  0  0  0  0
  5 26  1  0  0  0  0
  5 27  1  0  0  0  0
  6  8  2  0  0  0  0
  6 28  1  0  0  0  0
  7  8  1  0  0  0  0
  7 11  2  0  0  0  0
  7 12  1  0  0  0  0
  8 29  1  0  0  0  0
  9 10  1  0  0  0  0
 10 17  2  0  0  0  0
 10 18  1  0  0  0  0
 11 15  1  0  0  0  0
 11 30  1  0  0  0  0
 12 16  2  0  0  0  0
 12 31  1  0  0  0  0
 13 15  2  0  0  0  0
 13 16  1  0  0  0  0
 13 22  1  0  0  0  0
 14 32  1  0  0  0  0
 14 33  1  0  0  0  0
 15 34  1  0  0  0  0
 16 35  1  0  0  0  0
 17 19  1  0  0  0  0
 17 36  1  0  0  0  0
 18 20  2  0  0  0  0
 18 37  1  0  0  0  0
 19 21  2  0  0  0  0
 19 38  1  0  0  0  0
 20 21  1  0  0  0  0
 20 39  1  0  0  0  0
 21 40  1  0  0  0  0
 22 23  2  0  0  0  0
 22 41  1  0  0  0  0
 23 42  1  0  0  0  0
 23 43  1  0  0  0  0
M  END
> <PUBCHEM_COMPOUND_CID>
102213766

> <PUBCHEM_CONFORMER_RMSD>
0.8

> <PUBCHEM_CONFORMER_DIVERSEORDER>
1
8
76
102
114
128
95
184
149
24
161
189
65
10
169
19
47
105
70
54
111
133
25
140
180
38
123
175
29
43
101
81
139
181
136
59
163
86
18
92
85
52
147
176
2
132
107
48
27
69
156
83
6
89
116
164
126
130
26
5
135
171
16
170
124
182
129
56
159
118
55
187
108
42
53
49
109
121
78
87
35
64
41
74
40
100
166
36
51
50
142
20
17
143
79
119
157
28
66
106
152
84
37
151
68
154
77
153
172
167
46
71
117
146
12
96
144
148
178
44
30
14
125
174
11
39
99
138
23
33
82
21
13
58
103
173
185
4
32
67
122
186
141
127
155
158
60
31
73
7
15
110
90
22
183
120
3
160
34
72
131
75
162
168
91
45
57
134
61
93
63
113
115
188
112
150
179
165
104
62
137
94
145
97
88
9
177
98
80

> <PUBCHEM_MMFF94_PARTIAL_CHARGES>
38
1 -0.43
10 0.09
11 -0.15
12 -0.15
13 0.03
14 -0.3
15 -0.15
16 -0.15
17 -0.15
18 -0.15
19 -0.15
2 -0.57
20 -0.15
21 -0.15
22 -0.18
23 -0.3
28 0.15
29 0.15
3 0.42
30 0.15
31 0.15
32 0.15
33 0.15
34 0.15
35 0.15
36 0.15
37 0.15
38 0.15
39 0.15
4 -0.14
40 0.15
41 0.15
42 0.15
43 0.15
6 -0.15
7 0.03
8 -0.18
9 0.63

> <PUBCHEM_EFFECTIVE_ROTOR_COUNT>
7

> <PUBCHEM_PHARMACOPHORE_FEATURES>
5
1 14 hydrophobe
1 2 acceptor
1 23 hydrophobe
6 10 17 18 19 20 21 rings
6 7 11 12 13 15 16 rings

> <PUBCHEM_HEAVY_ATOM_COUNT>
23

> <PUBCHEM_ATOM_DEF_STEREO_COUNT>
0

> <PUBCHEM_ATOM_UDEF_STEREO_COUNT>
1

> <PUBCHEM_BOND_DEF_STEREO_COUNT>
1

> <PUBCHEM_BOND_UDEF_STEREO_COUNT>
0

> <PUBCHEM_ISOTOPIC_ATOM_COUNT>
0

> <PUBCHEM_COMPONENT_COUNT>
1

> <PUBCHEM_CACTVS_TAUTO_COUNT>
1

> <PUBCHEM_CONFORMER_ID>
0617A88600000001

> <PUBCHEM_MMFF94_ENERGY>
66.5263

> <PUBCHEM_FEATURE_SELFOVERLAP>
25.372

> <PUBCHEM_SHAPE_FINGERPRINT>
10087517 78 18120367916324563572
10165383 225 18272663337434420769
10411042 1 17834113426444342247
105312 117 18413108351359575156
10615611 76 17386868242978198788
10670039 82 18264218074826884748
10871710 139 18337387253207956663
11014199 57 17833833055400190670
11045515 52 17834658771490185735
11101153 10 17974291220642176892
11370993 70 18267018367111651545
11595378 159 18044917181810143034
12107183 9 18191011306454629538
12769317 202 17981033120821250753
12788726 201 18190446341417812707
13004483 165 18122333851393523915
138480 1 17042604211411567935
13944108 23 17474106501798019756
14251751 93 18409163342119734250
14251764 75 18197503930500017681
14468879 13 18189622653032345297
14508225 48 17767671021140934447
14955137 171 17688314907820720939
15081414 286 17333653773942328471
15230672 131 18337394830374604254
15961568 22 17474658929302871656
17834072 32 18339079285295842144
19930381 70 17979633438583087113
20101258 96 17903645416281523114
21033648 29 18343010087005940768
21033650 10 18190203320184765950
21279426 13 18201168676723932590
238 59 17687719676871198741
25019877 29 17201379574969324911
350125 39 18342178924512435555
508706 21 18411978087533773100
6327066 14 18335415717063779733
7808743 9 18408319982368073064
9862522 239 18411411813159886386

> <PUBCHEM_SHAPE_MULTIPOLES>
461.59
11.72
4.95
1.09
19.05
2.15
-0.01
-10.19
-0.47
-6.73
1.78
-0.81
-0.11
0.89

> <PUBCHEM_SHAPE_SELFOVERLAP>
974.769

> <PUBCHEM_SHAPE_VOLUME>
258.5

> <PUBCHEM_COORDINATE_TYPE>
2
5
10

$$$$
