10891540
  -OEChem-02172602443D

 48 48  0     0  0  0  0  0  0999 V2000
   -1.4613    0.1066    0.0410 Si  0  0  0  0  0  0  0  0  0  0  0  0
    0.0198   -0.0624   -0.7090 O   0  0  0  0  0  0  0  0  0  0  0  0
   -1.2135    0.8004    1.7788 C   0  0  0  0  0  0  0  0  0  0  0  0
   -2.5742    1.2990   -0.8939 C   0  0  0  0  0  0  0  0  0  0  0  0
   -2.3413   -1.5461    0.2092 C   0  0  0  0  0  0  0  0  0  0  0  0
   -0.5602    2.1885    1.7825 C   0  0  0  0  0  0  0  0  0  0  0  0
   -0.4229   -0.1436    2.6938 C   0  0  0  0  0  0  0  0  0  0  0  0
   -3.9482    1.4780   -0.2354 C   0  0  0  0  0  0  0  0  0  0  0  0
   -2.7555    0.9183   -2.3690 C   0  0  0  0  0  0  0  0  0  0  0  0
   -2.6067   -2.2241   -1.1412 C   0  0  0  0  0  0  0  0  0  0  0  0
   -3.6501   -1.4501    1.0036 C   0  0  0  0  0  0  0  0  0  0  0  0
    1.1590   -0.7721   -0.4387 C   0  0  0  0  0  0  0  0  0  0  0  0
    2.3774   -0.1269   -0.2448 C   0  0  0  0  0  0  0  0  0  0  0  0
    1.0768   -2.1598   -0.3609 C   0  0  0  0  0  0  0  0  0  0  0  0
    3.5223   -0.8753    0.0290 C   0  0  0  0  0  0  0  0  0  0  0  0
    2.2217   -2.9079   -0.0870 C   0  0  0  0  0  0  0  0  0  0  0  0
    3.4443   -2.2657    0.1079 C   0  0  0  0  0  0  0  0  0  0  0  0
    2.4783    1.2984   -0.3214 C   0  0  0  0  0  0  0  0  0  0  0  0
    2.5643    2.4944   -0.3843 C   0  0  0  0  0  0  0  0  0  0  0  0
    2.6700    3.9506   -0.4602 C   0  0  0  0  0  0  0  0  0  0  0  0
   -2.2040    0.9217    2.2305 H   0  0  0  0  0  0  0  0  0  0  0  0
   -2.0655    2.2704   -0.8736 H   0  0  0  0  0  0  0  0  0  0  0  0
   -1.6711   -2.1982    0.7804 H   0  0  0  0  0  0  0  0  0  0  0  0
   -0.5300    2.5891    2.8025 H   0  0  0  0  0  0  0  0  0  0  0  0
    0.4682    2.1547    1.4207 H   0  0  0  0  0  0  0  0  0  0  0  0
   -1.1150    2.9082    1.1721 H   0  0  0  0  0  0  0  0  0  0  0  0
   -0.3796    0.2641    3.7105 H   0  0  0  0  0  0  0  0  0  0  0  0
    0.6096   -0.2784    2.3569 H   0  0  0  0  0  0  0  0  0  0  0  0
   -0.8886   -1.1320    2.7654 H   0  0  0  0  0  0  0  0  0  0  0  0
   -4.3972    2.4105   -0.6008 H   0  0  0  0  0  0  0  0  0  0  0  0
   -4.6516    0.6911   -0.5163 H   0  0  0  0  0  0  0  0  0  0  0  0
   -3.9080    1.5590    0.8542 H   0  0  0  0  0  0  0  0  0  0  0  0
   -3.2089    1.7571   -2.9111 H   0  0  0  0  0  0  0  0  0  0  0  0
   -3.4215    0.0655   -2.5118 H   0  0  0  0  0  0  0  0  0  0  0  0
   -1.8006    0.6970   -2.8587 H   0  0  0  0  0  0  0  0  0  0  0  0
   -2.8054   -3.2908   -0.9807 H   0  0  0  0  0  0  0  0  0  0  0  0
   -3.4940   -1.8235   -1.6385 H   0  0  0  0  0  0  0  0  0  0  0  0
   -1.7615   -2.1520   -1.8331 H   0  0  0  0  0  0  0  0  0  0  0  0
   -3.9377   -2.4573    1.3321 H   0  0  0  0  0  0  0  0  0  0  0  0
   -4.4908   -1.0931    0.4075 H   0  0  0  0  0  0  0  0  0  0  0  0
   -3.5699   -0.8427    1.9091 H   0  0  0  0  0  0  0  0  0  0  0  0
    0.1490   -2.6913   -0.5329 H   0  0  0  0  0  0  0  0  0  0  0  0
    4.4834   -0.3904    0.1835 H   0  0  0  0  0  0  0  0  0  0  0  0
    2.1625   -3.9910   -0.0314 H   0  0  0  0  0  0  0  0  0  0  0  0
    4.3360   -2.8486    0.3197 H   0  0  0  0  0  0  0  0  0  0  0  0
    2.9078    4.2712   -1.4789 H   0  0  0  0  0  0  0  0  0  0  0  0
    1.7283    4.4240   -0.1663 H   0  0  0  0  0  0  0  0  0  0  0  0
    3.4571    4.3189    0.2046 H   0  0  0  0  0  0  0  0  0  0  0  0
  1  2  1  0  0  0  0
  1  3  1  0  0  0  0
  1  4  1  0  0  0  0
  1  5  1  0  0  0  0
  2 12  1  0  0  0  0
  3  6  1  0  0  0  0
  3  7  1  0  0  0  0
  3 21  1  0  0  0  0
  4  8  1  0  0  0  0
  4  9  1  0  0  0  0
  4 22  1  0  0  0  0
  5 10  1  0  0  0  0
  5 11  1  0  0  0  0
  5 23  1  0  0  0  0
  6 24  1  0  0  0  0
  6 25  1  0  0  0  0
  6 26  1  0  0  0  0
  7 27  1  0  0  0  0
  7 28  1  0  0  0  0
  7 29  1  0  0  0  0
  8 30  1  0  0  0  0
  8 31  1  0  0  0  0
  8 32  1  0  0  0  0
  9 33  1  0  0  0  0
  9 34  1  0  0  0  0
  9 35  1  0  0  0  0
 10 36  1  0  0  0  0
 10 37  1  0  0  0  0
 10 38  1  0  0  0  0
 11 39  1  0  0  0  0
 11 40  1  0  0  0  0
 11 41  1  0  0  0  0
 12 13  1  0  0  0  0
 12 14  2  0  0  0  0
 13 15  2  0  0  0  0
 13 18  1  0  0  0  0
 14 16  1  0  0  0  0
 14 42  1  0  0  0  0
 15 17  1  0  0  0  0
 15 43  1  0  0  0  0
 16 17  2  0  0  0  0
 16 44  1  0  0  0  0
 17 45  1  0  0  0  0
 18 19  3  0  0  0  0
 19 20  1  0  0  0  0
 20 46  1  0  0  0  0
 20 47  1  0  0  0  0
 20 48  1  0  0  0  0
M  END
> <PUBCHEM_COMPOUND_CID>
10891540

> <PUBCHEM_CONFORMER_RMSD>
0.8

> <PUBCHEM_CONFORMER_DIVERSEORDER>
1
23
22
29
7
20
13
2
21
32
26
30
27
15
28
8
6
4
18
24
33
14
25
16
3
31
10
5
17
12
19
9
11

> <PUBCHEM_MMFF94_PARTIAL_CHARGES>
18
1 0.54
12 0.08
13 0.07
14 -0.15
15 -0.15
16 -0.15
17 -0.15
18 -0.07
19 -0.2
2 -0.38
20 0.2
3 -0.08
4 -0.08
42 0.15
43 0.15
44 0.15
45 0.15
5 -0.08

> <PUBCHEM_EFFECTIVE_ROTOR_COUNT>
5

> <PUBCHEM_PHARMACOPHORE_FEATURES>
5
1 20 hydrophobe
3 3 6 7 hydrophobe
3 4 8 9 hydrophobe
3 5 10 11 hydrophobe
6 12 13 14 15 16 17 rings

> <PUBCHEM_HEAVY_ATOM_COUNT>
20

> <PUBCHEM_ATOM_DEF_STEREO_COUNT>
0

> <PUBCHEM_ATOM_UDEF_STEREO_COUNT>
0

> <PUBCHEM_BOND_DEF_STEREO_COUNT>
0

> <PUBCHEM_BOND_UDEF_STEREO_COUNT>
0

> <PUBCHEM_ISOTOPIC_ATOM_COUNT>
0

> <PUBCHEM_COMPONENT_COUNT>
1

> <PUBCHEM_CACTVS_TAUTO_COUNT>
1

> <PUBCHEM_CONFORMER_ID>
00A6311400000001

> <PUBCHEM_MMFF94_ENERGY>
39.1563

> <PUBCHEM_FEATURE_SELFOVERLAP>
25.374

> <PUBCHEM_SHAPE_FINGERPRINT>
11578080 2 17916283078767187769
11582403 64 16740529201175290684
12553582 1 18050581651042029958
12788726 201 17488755462702449073
13140716 1 18335416876593809268
13294875 104 16808667895269467164
14115302 16 18059849520087766451
14223421 5 18262808482912082967
14787075 74 17481718862893011383
14866123 147 16246869993827161642
15375462 189 18058178400048212083
16945 1 18263351504238064253
192875 21 18127686037399536544
19930381 70 18192992840597232885
200 152 17988067877582893447
20600515 1 18127688223754324070
20691752 17 17334754866170654631
21330990 113 17618501425319350265
21524375 3 17910963757671225060
229495 10 18340202011559366135
23402539 116 17911504403215809007
23557571 272 16807310230548174147
23559900 14 18410285895935667146
23598288 3 17489596610471949361
350125 39 18264777738866359188
69090 78 18188487944195187415
6992083 37 17982183218589572466
74978 22 18339084778595950182
81228 2 17622447143175917350
9981440 41 18047184443453781368

> <PUBCHEM_SHAPE_MULTIPOLES>
423.93
6.4
3.69
1.79
0.19
1.51
-0.74
-0.33
1.32
-3.14
0.49
1.52
0.53
-0.07

> <PUBCHEM_SHAPE_SELFOVERLAP>
833.061

> <PUBCHEM_SHAPE_VOLUME>
255.6

> <PUBCHEM_COORDINATE_TYPE>
2
5
10

$$$$
