5319486
  -OEChem-02172602413D

 53 56  0     1  0  0  0  0  0999 V2000
    3.4899   -0.3010    0.9631 O   0  0  0  0  0  0  0  0  0  0  0  0
    2.6821   -0.1091   -2.6119 O   0  0  0  0  0  0  0  0  0  0  0  0
    5.5425   -0.7817   -2.5724 O   0  0  0  0  0  0  0  0  0  0  0  0
    6.1763   -2.4430   -0.3044 O   0  0  0  0  0  0  0  0  0  0  0  0
    4.1431   -1.5835    3.3026 O   0  0  0  0  0  0  0  0  0  0  0  0
   -0.0977   -0.5692   -0.0895 O   0  0  0  0  0  0  0  0  0  0  0  0
    3.5492    2.4836    0.0797 O   0  0  0  0  0  0  0  0  0  0  0  0
   -2.7904    2.4434    0.4776 O   0  0  0  0  0  0  0  0  0  0  0  0
   -7.8421   -1.3720    0.1035 O   0  0  0  0  0  0  0  0  0  0  0  0
    3.5292   -0.0323   -1.4656 C   0  0  2  0  0  0  0  0  0  0  0  0
    4.5954   -1.1272   -1.5599 C   0  0  2  0  0  0  0  0  0  0  0  0
    2.6685   -0.2102   -0.2054 C   0  0  2  0  0  0  0  0  0  0  0  0
    5.3513   -1.2825   -0.2403 C   0  0  1  0  0  0  0  0  0  0  0  0
    4.3766   -1.4203    0.9306 C   0  0  1  0  0  0  0  0  0  0  0  0
    1.7104    0.9477   -0.0052 C   0  0  0  0  0  0  0  0  0  0  0  0
    5.1049   -1.4669    2.2699 C   0  0  0  0  0  0  0  0  0  0  0  0
    0.3340    0.7253    0.0465 C   0  0  0  0  0  0  0  0  0  0  0  0
    2.2088    2.2437    0.1276 C   0  0  0  0  0  0  0  0  0  0  0  0
   -0.5406    1.7955    0.2312 C   0  0  0  0  0  0  0  0  0  0  0  0
    1.3336    3.3146    0.3121 C   0  0  0  0  0  0  0  0  0  0  0  0
   -0.0434    3.0945    0.3649 C   0  0  0  0  0  0  0  0  0  0  0  0
   -1.9910    1.5360    0.2872 C   0  0  0  0  0  0  0  0  0  0  0  0
   -2.4174    0.1198    0.1153 C   0  0  0  0  0  0  0  0  0  0  0  0
   -1.4522   -0.7959   -0.0566 C   0  0  0  0  0  0  0  0  0  0  0  0
   -3.8365   -0.2714    0.1116 C   0  0  0  0  0  0  0  0  0  0  0  0
   -4.4660   -0.6338    1.3043 C   0  0  0  0  0  0  0  0  0  0  0  0
   -4.5582   -0.2803   -1.0838 C   0  0  0  0  0  0  0  0  0  0  0  0
   -5.8109   -1.0036    1.3015 C   0  0  0  0  0  0  0  0  0  0  0  0
   -5.9032   -0.6500   -1.0866 C   0  0  0  0  0  0  0  0  0  0  0  0
   -6.5295   -1.0117    0.1060 C   0  0  0  0  0  0  0  0  0  0  0  0
   -8.5167   -1.3583   -1.1536 C   0  0  0  0  0  0  0  0  0  0  0  0
    4.0474    0.9267   -1.5317 H   0  0  0  0  0  0  0  0  0  0  0  0
    4.1487   -2.0811   -1.8666 H   0  0  0  0  0  0  0  0  0  0  0  0
    2.1125   -1.1509   -0.2956 H   0  0  0  0  0  0  0  0  0  0  0  0
    6.0109   -0.4184   -0.0944 H   0  0  0  0  0  0  0  0  0  0  0  0
    3.7777   -2.3368    0.8395 H   0  0  0  0  0  0  0  0  0  0  0  0
    5.6759   -0.5495    2.4475 H   0  0  0  0  0  0  0  0  0  0  0  0
    5.7834   -2.3224    2.3329 H   0  0  0  0  0  0  0  0  0  0  0  0
    2.1034    0.6718   -2.6082 H   0  0  0  0  0  0  0  0  0  0  0  0
    5.0487   -0.6589   -3.4013 H   0  0  0  0  0  0  0  0  0  0  0  0
    5.5986   -3.2161   -0.4248 H   0  0  0  0  0  0  0  0  0  0  0  0
    1.7189    4.3255    0.4160 H   0  0  0  0  0  0  0  0  0  0  0  0
   -0.7077    3.9418    0.5098 H   0  0  0  0  0  0  0  0  0  0  0  0
    3.5440   -0.8204    3.2342 H   0  0  0  0  0  0  0  0  0  0  0  0
   -1.6437   -1.8529   -0.1957 H   0  0  0  0  0  0  0  0  0  0  0  0
    4.0239    1.7133    0.4346 H   0  0  0  0  0  0  0  0  0  0  0  0
   -3.9199   -0.6313    2.2447 H   0  0  0  0  0  0  0  0  0  0  0  0
   -4.0834    0.0002   -2.0211 H   0  0  0  0  0  0  0  0  0  0  0  0
   -6.2937   -1.2839    2.2337 H   0  0  0  0  0  0  0  0  0  0  0  0
   -6.4016   -0.6339   -2.0498 H   0  0  0  0  0  0  0  0  0  0  0  0
   -8.5595   -0.3488   -1.5763 H   0  0  0  0  0  0  0  0  0  0  0  0
   -9.5496   -1.6716   -0.9695 H   0  0  0  0  0  0  0  0  0  0  0  0
   -8.0825   -2.0825   -1.8512 H   0  0  0  0  0  0  0  0  0  0  0  0
  1 12  1  0  0  0  0
  1 14  1  0  0  0  0
  2 10  1  0  0  0  0
  2 39  1  0  0  0  0
  3 11  1  0  0  0  0
  3 40  1  0  0  0  0
  4 13  1  0  0  0  0
  4 41  1  0  0  0  0
  5 16  1  0  0  0  0
  5 44  1  0  0  0  0
  6 17  1  0  0  0  0
  6 24  1  0  0  0  0
  7 18  1  0  0  0  0
  7 46  1  0  0  0  0
  8 22  2  0  0  0  0
  9 30  1  0  0  0  0
  9 31  1  0  0  0  0
 10 11  1  0  0  0  0
 10 12  1  0  0  0  0
 10 32  1  0  0  0  0
 11 13  1  0  0  0  0
 11 33  1  0  0  0  0
 12 15  1  0  0  0  0
 12 34  1  0  0  0  0
 13 14  1  0  0  0  0
 13 35  1  0  0  0  0
 14 16  1  0  0  0  0
 14 36  1  0  0  0  0
 15 17  1  0  0  0  0
 15 18  2  0  0  0  0
 16 37  1  0  0  0  0
 16 38  1  0  0  0  0
 17 19  2  0  0  0  0
 18 20  1  0  0  0  0
 19 21  1  0  0  0  0
 19 22  1  0  0  0  0
 20 21  2  0  0  0  0
 20 42  1  0  0  0  0
 21 43  1  0  0  0  0
 22 23  1  0  0  0  0
 23 24  2  0  0  0  0
 23 25  1  0  0  0  0
 24 45  1  0  0  0  0
 25 26  2  0  0  0  0
 25 27  1  0  0  0  0
 26 28  1  0  0  0  0
 26 47  1  0  0  0  0
 27 29  2  0  0  0  0
 27 48  1  0  0  0  0
 28 30  2  0  0  0  0
 28 49  1  0  0  0  0
 29 30  1  0  0  0  0
 29 50  1  0  0  0  0
 31 51  1  0  0  0  0
 31 52  1  0  0  0  0
 31 53  1  0  0  0  0
M  END
> <PUBCHEM_COMPOUND_CID>
5319486

> <PUBCHEM_CONFORMER_RMSD>
0.8

> <PUBCHEM_CONFORMER_DIVERSEORDER>
1
8
10
14
6
13
15
2
7
9
11
3
5
12
4

> <PUBCHEM_MMFF94_PARTIAL_CHARGES>
43
1 -0.56
10 0.28
11 0.28
12 0.42
13 0.28
14 0.28
15 -0.14
16 0.28
17 0.08
18 0.08
19 0.09
2 -0.68
20 -0.15
21 -0.15
22 0.47
23 -0.01
24 -0.07
25 0.03
26 -0.15
27 -0.15
28 -0.15
29 -0.15
3 -0.68
30 0.08
31 0.28
39 0.4
4 -0.68
40 0.4
41 0.4
42 0.15
43 0.15
44 0.4
45 0.15
46 0.45
47 0.15
48 0.15
49 0.15
5 -0.68
50 0.15
6 -0.16
7 -0.53
8 -0.57
9 -0.36

> <PUBCHEM_EFFECTIVE_ROTOR_COUNT>
5.2

> <PUBCHEM_PHARMACOPHORE_FEATURES>
17
1 1 acceptor
1 2 acceptor
1 2 donor
1 3 acceptor
1 3 donor
1 4 acceptor
1 4 donor
1 5 acceptor
1 5 donor
1 6 acceptor
1 7 donor
1 8 acceptor
1 9 acceptor
6 1 10 11 12 13 14 rings
6 15 17 18 19 20 21 rings
6 25 26 27 28 29 30 rings
6 6 17 19 22 23 24 rings

> <PUBCHEM_HEAVY_ATOM_COUNT>
31

> <PUBCHEM_ATOM_DEF_STEREO_COUNT>
5

> <PUBCHEM_ATOM_UDEF_STEREO_COUNT>
0

> <PUBCHEM_BOND_DEF_STEREO_COUNT>
0

> <PUBCHEM_BOND_UDEF_STEREO_COUNT>
0

> <PUBCHEM_ISOTOPIC_ATOM_COUNT>
0

> <PUBCHEM_COMPONENT_COUNT>
1

> <PUBCHEM_CACTVS_TAUTO_COUNT>
5

> <PUBCHEM_CONFORMER_ID>
00512B3E00000001

> <PUBCHEM_MMFF94_ENERGY>
108.9495

> <PUBCHEM_FEATURE_SELFOVERLAP>
86.322

> <PUBCHEM_SHAPE_FINGERPRINT>
10 15 12031786977041231151
10411042 1 18341051835042238872
10622 236 17243565405000975138
12166972 35 18040720259505395029
12236239 1 17896048650828538670
12342043 65 17202211712049958238
12422481 6 17203331096048353253
12553582 1 18413109442107259830
12616971 3 18130782408821036751
13533116 47 18270962452870311553
13782708 43 18187077408585189991
13862211 1 18341897385612303735
14294032 229 18047198445380105701
14347332 77 18342745083191626749
15183329 4 16370724807792380271
15324884 4 17271993265774616252
17134984 74 17168150052728247050
1813 80 18201446864995880052
18222031 100 18343867714232354220
19319366 153 17822009826800349626
1979834 28 17132120147179997988
20028762 73 18060703905380017503
21033648 29 17202471222136441418
21267235 1 18341618104836146271
21279426 13 18408316675781539837
21315764 119 16588018001240467259
21344244 78 17846491551965652736
21781051 124 17603594071178042251
21792934 111 16988847168901917571
23522609 53 18052858881231357809
23559900 14 17313666057530622177
23569943 247 17628937646051827231
27425 322 12468653749761235210
3004659 81 18040155102234311978
312425 54 16487259854877000735
3383291 50 18408600366439545643
3411729 13 18198337554288812352
397830 11 15841548570358327091
4073 2 17899416664996803347
465052 167 18342183283888345343
5104073 3 18342460348530203793
57527293 21 17630581558417455650
59682541 52 15791729681176519962
6086070 43 18336822010101007153
7970288 3 18340488876588924254
86090 222 16916524566164801198
8863177 126 18043545008605589987
9841814 1 18410855490694476456
9962374 69 18200586011794599134

> <PUBCHEM_SHAPE_MULTIPOLES>
585.14
18.49
2.77
1.87
26.35
2.6
-0.25
-16.06
2.17
-2.37
-0.59
-3.05
-1.21
-0.74

> <PUBCHEM_SHAPE_SELFOVERLAP>
1282.645

> <PUBCHEM_SHAPE_VOLUME>
314

> <PUBCHEM_COORDINATE_TYPE>
2
5
10

$$$$
