536420
  -OEChem-02172602563D

 38 41  0     1  0  0  0  0  0999 V2000
   -6.1983   -1.1474   -2.3891 Br  0  0  0  0  0  0  0  0  0  0  0  0
    7.1697   -0.1812   -0.0269 Cl  0  0  0  0  0  0  0  0  0  0  0  0
    0.0441    3.3180   -0.2258 O   0  0  0  0  0  0  0  0  0  0  0  0
    0.8677   -2.6087    0.0617 O   0  0  0  0  0  0  0  0  0  0  0  0
    2.6187    2.5451   -0.1853 O   0  0  0  0  0  0  0  0  0  0  0  0
    1.3226   -1.2914    0.0375 N   0  0  0  0  0  0  0  0  0  0  0  0
   -1.9963    0.4801    0.5286 C   0  0  1  0  0  0  0  0  0  0  0  0
   -1.0675   -0.6539    0.0744 C   0  0  0  0  0  0  0  0  0  0  0  0
   -1.7280    1.7305   -0.3007 C   0  0  0  0  0  0  0  0  0  0  0  0
    0.3966   -0.2457    0.0007 C   0  0  0  0  0  0  0  0  0  0  0  0
    0.7618    1.0536   -0.0844 C   0  0  0  0  0  0  0  0  0  0  0  0
   -0.2772    2.1311   -0.1821 C   0  0  0  0  0  0  0  0  0  0  0  0
   -3.4561    0.0678    0.4928 C   0  0  0  0  0  0  0  0  0  0  0  0
    2.2224    1.3878   -0.1112 C   0  0  0  0  0  0  0  0  0  0  0  0
    2.7168   -1.0449    0.0217 C   0  0  0  0  0  0  0  0  0  0  0  0
    3.1922    0.2722   -0.0474 C   0  0  0  0  0  0  0  0  0  0  0  0
   -4.0488   -0.2861   -0.7175 C   0  0  0  0  0  0  0  0  0  0  0  0
   -4.1990    0.0430    1.6713 C   0  0  0  0  0  0  0  0  0  0  0  0
    3.6545   -2.0887    0.0744 C   0  0  0  0  0  0  0  0  0  0  0  0
    4.5661    0.5432   -0.0628 C   0  0  0  0  0  0  0  0  0  0  0  0
   -5.3905   -0.6664   -0.7495 C   0  0  0  0  0  0  0  0  0  0  0  0
   -5.5405   -0.3375    1.6394 C   0  0  0  0  0  0  0  0  0  0  0  0
    5.0252   -1.8211    0.0596 C   0  0  0  0  0  0  0  0  0  0  0  0
    5.4799   -0.5071   -0.0087 C   0  0  0  0  0  0  0  0  0  0  0  0
   -6.1363   -0.6922    0.4291 C   0  0  0  0  0  0  0  0  0  0  0  0
   -1.7327    0.7142    1.5713 H   0  0  0  0  0  0  0  0  0  0  0  0
   -1.3568   -1.0419   -0.9107 H   0  0  0  0  0  0  0  0  0  0  0  0
   -1.1915   -1.4801    0.7872 H   0  0  0  0  0  0  0  0  0  0  0  0
   -2.3461    2.5591    0.0661 H   0  0  0  0  0  0  0  0  0  0  0  0
   -1.9519    1.5880   -1.3640 H   0  0  0  0  0  0  0  0  0  0  0  0
   -3.4730   -0.2661   -1.6394 H   0  0  0  0  0  0  0  0  0  0  0  0
   -3.7494    0.3161    2.6220 H   0  0  0  0  0  0  0  0  0  0  0  0
    3.3325   -3.1257    0.1291 H   0  0  0  0  0  0  0  0  0  0  0  0
    4.9272    1.5674   -0.1172 H   0  0  0  0  0  0  0  0  0  0  0  0
   -6.1212   -0.3576    2.5570 H   0  0  0  0  0  0  0  0  0  0  0  0
    0.8564   -2.7993    1.0157 H   0  0  0  0  0  0  0  0  0  0  0  0
    5.7262   -2.6509    0.1022 H   0  0  0  0  0  0  0  0  0  0  0  0
   -7.1827   -0.9863    0.4218 H   0  0  0  0  0  0  0  0  0  0  0  0
  1 21  1  0  0  0  0
  2 24  1  0  0  0  0
  3 12  2  0  0  0  0
  4  6  1  0  0  0  0
  4 36  1  0  0  0  0
  5 14  2  0  0  0  0
  6 10  1  0  0  0  0
  6 15  1  0  0  0  0
  7  8  1  0  0  0  0
  7  9  1  0  0  0  0
  7 13  1  0  0  0  0
  7 26  1  0  0  0  0
  8 10  1  0  0  0  0
  8 27  1  0  0  0  0
  8 28  1  0  0  0  0
  9 12  1  0  0  0  0
  9 29  1  0  0  0  0
  9 30  1  0  0  0  0
 10 11  2  0  0  0  0
 11 12  1  0  0  0  0
 11 14  1  0  0  0  0
 13 17  2  0  0  0  0
 13 18  1  0  0  0  0
 14 16  1  0  0  0  0
 15 16  2  0  0  0  0
 15 19  1  0  0  0  0
 16 20  1  0  0  0  0
 17 21  1  0  0  0  0
 17 31  1  0  0  0  0
 18 22  2  0  0  0  0
 18 32  1  0  0  0  0
 19 23  2  0  0  0  0
 19 33  1  0  0  0  0
 20 24  2  0  0  0  0
 20 34  1  0  0  0  0
 21 25  2  0  0  0  0
 22 25  1  0  0  0  0
 22 35  1  0  0  0  0
 23 24  1  0  0  0  0
 23 37  1  0  0  0  0
 25 38  1  0  0  0  0
M  END
> <PUBCHEM_COMPOUND_CID>
536420

> <PUBCHEM_CONFORMER_RMSD>
0.6

> <PUBCHEM_CONFORMER_DIVERSEORDER>
1
17
15
11
13
6
14
10
12
9
4
2
5
8
7
3
16

> <PUBCHEM_MMFF94_PARTIAL_CHARGES>
33
1 -0.11
10 -0.04
11 0.03
12 0.49
13 -0.14
14 0.47
15 0.1
16 0.09
17 -0.15
18 -0.15
19 -0.15
2 -0.18
20 -0.15
21 0.11
22 -0.15
23 -0.15
24 0.18
25 -0.15
3 -0.57
31 0.15
32 0.15
33 0.15
34 0.15
35 0.15
36 0.4
37 0.15
38 0.15
4 -0.38
5 -0.57
6 -0.22
7 0.14
8 0.14
9 0.06

> <PUBCHEM_EFFECTIVE_ROTOR_COUNT>
1.6

> <PUBCHEM_PHARMACOPHORE_FEATURES>
8
1 1 hydrophobe
1 3 acceptor
1 4 anion
1 5 acceptor
6 13 17 18 21 22 25 rings
6 15 16 19 20 23 24 rings
6 6 10 11 14 15 16 rings
6 7 8 9 10 11 12 rings

> <PUBCHEM_HEAVY_ATOM_COUNT>
25

> <PUBCHEM_ATOM_DEF_STEREO_COUNT>
0

> <PUBCHEM_ATOM_UDEF_STEREO_COUNT>
1

> <PUBCHEM_BOND_DEF_STEREO_COUNT>
0

> <PUBCHEM_BOND_UDEF_STEREO_COUNT>
0

> <PUBCHEM_ISOTOPIC_ATOM_COUNT>
0

> <PUBCHEM_COMPONENT_COUNT>
1

> <PUBCHEM_CACTVS_TAUTO_COUNT>
7

> <PUBCHEM_CONFORMER_ID>
00082F6400000001

> <PUBCHEM_MMFF94_ENERGY>
64.7043

> <PUBCHEM_FEATURE_SELFOVERLAP>
40.643

> <PUBCHEM_SHAPE_FINGERPRINT>
10 15 18261387889379878400
10076449 9 18272661117674598454
10447042 23 18261387828153200286
10688039 33 18040720238210250612
1100329 8 18337957912537912626
11796584 16 16443061694720819258
11963148 33 18334010614345215314
12166972 35 18131350834051074377
12236239 1 17846780728192640367
12342043 65 17243037884702069089
12516196 113 18411138039038211177
12596602 18 16917066680783073131
12616971 3 18201727266947736585
12623949 98 17702957911647741286
13140716 1 18265618874078265872
13402501 40 18260272948995243995
13533116 47 18272932764738072704
13544653 18 18334019371808826773
13685833 64 18260837003266716483
13782708 43 17313960744006396147
13862211 1 18410009918949871938
14840074 17 18272369771634291231
14849402 71 17560515235455748288
15188451 53 16773505660280478935
15196674 1 18337111138571652584
15320294 125 17417805202149936591
15927050 60 17836371823685957868
17349148 13 18130792282739918115
17492 89 18048315544914412610
17857418 61 18273493477255768359
1813 80 18341630186901254533
18222031 100 18411689989559145561
19319366 153 18040436599171753706
19489759 90 15719393932435098387
200 152 18413669098057959945
20028762 73 18131627893949526622
20645477 70 18260546770893886993
21033648 29 17530953727065314781
21236236 1 18337111159930905769
21267235 1 18409738352119639906
21315764 119 15068613842982463538
21641784 216 17896338951346423796
22224240 67 18202278122495129954
22393880 68 17677040348354274139
23402539 116 18412545384178701177
23522609 53 18056228888412140840
23559900 14 17603867831855139001
23569914 152 17252266871414779775
23569943 247 17700426788768433334
24771293 8 18273210937465207472
283562 15 18263363599035080256
2871803 45 18186518782782426176
3004659 81 17821729446754896944
314194 84 18412546509270482059
335352 9 18409450318691042743
350125 39 18410578366530400200
3882209 13 16960095845404950547
4015057 19 18263926699939896649
4093350 32 16415484883379140496
46194498 28 17023755653297180877
465052 167 18410864260811881750
5104073 3 18266739074463455896
5283173 99 17750224821187682413
57527295 17 17823396259802499455
59755656 215 18334576824309877134
602551 16 15554157173213135991
6691757 9 16630532830933026323

> <PUBCHEM_SHAPE_MULTIPOLES>
499.71
16.11
2.35
1.22
1.46
1.06
0.21
-7.1
1.46
-1.67
0.37
3.14
-0.32
-1.06

> <PUBCHEM_SHAPE_SELFOVERLAP>
1084.608

> <PUBCHEM_SHAPE_VOLUME>
279.4

> <PUBCHEM_COORDINATE_TYPE>
2
5
10

$$$$
