123698056
  -OEChem-02172602553D

 64 64  0     1  0  0  0  0  0999 V2000
    5.4656    3.0449   -1.0103 O   0  0  0  0  0  0  0  0  0  0  0  0
    6.1011    2.8059    1.7152 O   0  0  0  0  0  0  0  0  0  0  0  0
   -2.9058    0.6091    0.2342 C   0  0  0  0  0  0  0  0  0  0  0  0
   -1.8097    1.3515   -0.5340 C   0  0  0  0  0  0  0  0  0  0  0  0
   -4.3077    0.8404   -0.3368 C   0  0  0  0  0  0  0  0  0  0  0  0
   -0.4090    1.1112    0.0417 C   0  0  0  0  0  0  0  0  0  0  0  0
   -5.4390    0.0469    0.3274 C   0  0  0  0  0  0  0  0  0  0  0  0
    0.7233    1.8790   -0.6483 C   0  0  0  0  0  0  0  0  0  0  0  0
   -6.8020    0.2686   -0.3340 C   0  0  0  0  0  0  0  0  0  0  0  0
    2.0837    1.6798    0.0272 C   0  0  0  0  0  0  0  0  0  0  0  0
   -7.9542   -0.4506    0.3767 C   0  0  0  0  0  0  0  0  0  0  0  0
    3.1759    2.4875   -0.6857 C   0  0  0  0  0  0  0  0  0  0  0  0
   -9.2995   -0.2889   -0.3373 C   0  0  0  0  0  0  0  0  0  0  0  0
    4.6053    2.3083   -0.1314 C   0  0  2  0  0  0  0  0  0  0  0  0
  -10.4525   -1.0056    0.3725 C   0  0  0  0  0  0  0  0  0  0  0  0
    4.7465    2.9006    1.2788 C   0  0  0  0  0  0  0  0  0  0  0  0
  -11.7906   -0.8607   -0.3539 C   0  0  0  0  0  0  0  0  0  0  0  0
    5.0072    0.8887   -0.1499 C   0  0  0  0  0  0  0  0  0  0  0  0
  -12.9194   -1.5172    0.4261 C   0  0  0  0  0  0  0  0  0  0  0  0
    5.3413   -0.2650   -0.1325 C   0  0  0  0  0  0  0  0  0  0  0  0
    5.7456   -1.6355   -0.0780 C   0  0  0  0  0  0  0  0  0  0  0  0
    6.8983   -2.0500   -0.7451 C   0  0  0  0  0  0  0  0  0  0  0  0
    4.9872   -2.5578    0.6428 C   0  0  0  0  0  0  0  0  0  0  0  0
    7.2927   -3.3870   -0.6915 C   0  0  0  0  0  0  0  0  0  0  0  0
    5.3815   -3.8947    0.6966 C   0  0  0  0  0  0  0  0  0  0  0  0
    6.5342   -4.3092    0.0294 C   0  0  0  0  0  0  0  0  0  0  0  0
   -2.8921    0.9212    1.2855 H   0  0  0  0  0  0  0  0  0  0  0  0
   -2.6874   -0.4658    0.2200 H   0  0  0  0  0  0  0  0  0  0  0  0
   -1.8231    1.0390   -1.5852 H   0  0  0  0  0  0  0  0  0  0  0  0
   -2.0247    2.4269   -0.5189 H   0  0  0  0  0  0  0  0  0  0  0  0
   -4.5420    1.9106   -0.2738 H   0  0  0  0  0  0  0  0  0  0  0  0
   -4.2929    0.5906   -1.4055 H   0  0  0  0  0  0  0  0  0  0  0  0
   -0.1863    0.0376   -0.0007 H   0  0  0  0  0  0  0  0  0  0  0  0
   -0.4188    1.3842    1.1047 H   0  0  0  0  0  0  0  0  0  0  0  0
   -5.1954   -1.0221    0.2986 H   0  0  0  0  0  0  0  0  0  0  0  0
   -5.4972    0.3306    1.3853 H   0  0  0  0  0  0  0  0  0  0  0  0
    0.7825    1.5618   -1.6966 H   0  0  0  0  0  0  0  0  0  0  0  0
    0.4767    2.9480   -0.6530 H   0  0  0  0  0  0  0  0  0  0  0  0
   -7.0192    1.3435   -0.3632 H   0  0  0  0  0  0  0  0  0  0  0  0
   -6.7516   -0.0717   -1.3757 H   0  0  0  0  0  0  0  0  0  0  0  0
    2.3262    0.6115    0.0193 H   0  0  0  0  0  0  0  0  0  0  0  0
    2.0139    1.9909    1.0754 H   0  0  0  0  0  0  0  0  0  0  0  0
   -7.7169   -1.5188    0.4543 H   0  0  0  0  0  0  0  0  0  0  0  0
   -8.0388   -0.0691    1.4016 H   0  0  0  0  0  0  0  0  0  0  0  0
    2.9142    3.5544   -0.6681 H   0  0  0  0  0  0  0  0  0  0  0  0
    3.1703    2.2118   -1.7502 H   0  0  0  0  0  0  0  0  0  0  0  0
   -9.5365    0.7789   -0.4209 H   0  0  0  0  0  0  0  0  0  0  0  0
   -9.2122   -0.6752   -1.3603 H   0  0  0  0  0  0  0  0  0  0  0  0
  -10.2091   -2.0707    0.4722 H   0  0  0  0  0  0  0  0  0  0  0  0
  -10.5460   -0.6056    1.3898 H   0  0  0  0  0  0  0  0  0  0  0  0
    4.1224    2.3729    2.0072 H   0  0  0  0  0  0  0  0  0  0  0  0
    4.4789    3.9627    1.2791 H   0  0  0  0  0  0  0  0  0  0  0  0
  -11.7232   -1.3142   -1.3494 H   0  0  0  0  0  0  0  0  0  0  0  0
  -12.0228    0.2012   -0.4954 H   0  0  0  0  0  0  0  0  0  0  0  0
    5.3792    2.6737   -1.9053 H   0  0  0  0  0  0  0  0  0  0  0  0
  -13.0329   -1.0588    1.4137 H   0  0  0  0  0  0  0  0  0  0  0  0
  -12.7310   -2.5869    0.5629 H   0  0  0  0  0  0  0  0  0  0  0  0
  -13.8663   -1.4049   -0.1112 H   0  0  0  0  0  0  0  0  0  0  0  0
    6.1412    3.1966    2.6048 H   0  0  0  0  0  0  0  0  0  0  0  0
    7.5000   -1.3429   -1.3111 H   0  0  0  0  0  0  0  0  0  0  0  0
    4.0861   -2.2500    1.1680 H   0  0  0  0  0  0  0  0  0  0  0  0
    8.1902   -3.7099   -1.2109 H   0  0  0  0  0  0  0  0  0  0  0  0
    4.7910   -4.6130    1.2578 H   0  0  0  0  0  0  0  0  0  0  0  0
    6.8411   -5.3502    0.0712 H   0  0  0  0  0  0  0  0  0  0  0  0
  1 14  1  0  0  0  0
  1 55  1  0  0  0  0
  2 16  1  0  0  0  0
  2 59  1  0  0  0  0
  3  4  1  0  0  0  0
  3  5  1  0  0  0  0
  3 27  1  0  0  0  0
  3 28  1  0  0  0  0
  4  6  1  0  0  0  0
  4 29  1  0  0  0  0
  4 30  1  0  0  0  0
  5  7  1  0  0  0  0
  5 31  1  0  0  0  0
  5 32  1  0  0  0  0
  6  8  1  0  0  0  0
  6 33  1  0  0  0  0
  6 34  1  0  0  0  0
  7  9  1  0  0  0  0
  7 35  1  0  0  0  0
  7 36  1  0  0  0  0
  8 10  1  0  0  0  0
  8 37  1  0  0  0  0
  8 38  1  0  0  0  0
  9 11  1  0  0  0  0
  9 39  1  0  0  0  0
  9 40  1  0  0  0  0
 10 12  1  0  0  0  0
 10 41  1  0  0  0  0
 10 42  1  0  0  0  0
 11 13  1  0  0  0  0
 11 43  1  0  0  0  0
 11 44  1  0  0  0  0
 12 14  1  0  0  0  0
 12 45  1  0  0  0  0
 12 46  1  0  0  0  0
 13 15  1  0  0  0  0
 13 47  1  0  0  0  0
 13 48  1  0  0  0  0
 14 16  1  0  0  0  0
 14 18  1  0  0  0  0
 15 17  1  0  0  0  0
 15 49  1  0  0  0  0
 15 50  1  0  0  0  0
 16 51  1  0  0  0  0
 16 52  1  0  0  0  0
 17 19  1  0  0  0  0
 17 53  1  0  0  0  0
 17 54  1  0  0  0  0
 18 20  3  0  0  0  0
 19 56  1  0  0  0  0
 19 57  1  0  0  0  0
 19 58  1  0  0  0  0
 20 21  1  0  0  0  0
 21 22  2  0  0  0  0
 21 23  1  0  0  0  0
 22 24  1  0  0  0  0
 22 60  1  0  0  0  0
 23 25  2  0  0  0  0
 23 61  1  0  0  0  0
 24 26  2  0  0  0  0
 24 62  1  0  0  0  0
 25 26  1  0  0  0  0
 25 63  1  0  0  0  0
 26 64  1  0  0  0  0
M  END
> <PUBCHEM_COMPOUND_CID>
123698056

> <PUBCHEM_CONFORMER_RMSD>
1.4

> <PUBCHEM_CONFORMER_DIVERSEORDER>
1
192
17
209
83
183
161
202
135
181
154
51
62
32
139
201
2
45
8
189
173
167
166
77
72
50
85
13
97
213
91
197
107
29
95
146
163
94
12
111
190
19
185
211
42
207
128
103
11
215
59
16
200
178
15
7
9
175
133
137
168
26
92
165
38
68
131
102
170
5
82
96
160
34
196
113
145
203
120
20
124
39
172
41
74
76
191
156
115
141
171
48
187
90
35
159
214
100
143
110
123
49
180
158
101
86
122
98
212
194
27
22
121
151
87
10
195
127
18
56
182
157
57
118
67
108
24
104
177
30
179
147
125
60
155
204
73
210
106
44
54
186
88
36
138
188
61
4
169
78
23
198
21
58
150
117
84
140
105
119
64
31
6
116
112
47
89
130
162
66
93
43
153
114
148
81
144
208
174
126
71
149
52
132
176
184
46
70
164
40
99
69
25
136
199
205
109
134
65
152
28
75
53
37
3
193
33
80
79
142
129
55
63
14
206

> <PUBCHEM_MMFF94_PARTIAL_CHARGES>
19
1 -0.68
14 0.48
16 0.28
18 -0.2
2 -0.68
20 -0.07
21 0.07
22 -0.15
23 -0.15
24 -0.15
25 -0.15
26 -0.15
55 0.4
59 0.4
60 0.15
61 0.15
62 0.15
63 0.15
64 0.15

> <PUBCHEM_EFFECTIVE_ROTOR_COUNT>
14

> <PUBCHEM_PHARMACOPHORE_FEATURES>
6
1 1 acceptor
1 1 donor
1 19 hydrophobe
1 2 acceptor
1 2 donor
6 21 22 23 24 25 26 rings

> <PUBCHEM_HEAVY_ATOM_COUNT>
26

> <PUBCHEM_ATOM_DEF_STEREO_COUNT>
0

> <PUBCHEM_ATOM_UDEF_STEREO_COUNT>
1

> <PUBCHEM_BOND_DEF_STEREO_COUNT>
0

> <PUBCHEM_BOND_UDEF_STEREO_COUNT>
0

> <PUBCHEM_ISOTOPIC_ATOM_COUNT>
0

> <PUBCHEM_COMPONENT_COUNT>
1

> <PUBCHEM_CACTVS_TAUTO_COUNT>
1

> <PUBCHEM_CONFORMER_ID>
075F7B8800000001

> <PUBCHEM_MMFF94_ENERGY>
23.9534

> <PUBCHEM_FEATURE_SELFOVERLAP>
30.453

> <PUBCHEM_SHAPE_FINGERPRINT>
10066227 49 18409166598195541759
10168742 298 16008750200326043427
11103572 95 18337391651787542699
11408170 108 18335425660878082947
11409948 35 18410291398791151615
11638347 137 18411140251922217205
12089408 11 18059860580773434833
13533116 47 18413670210665973472
14202775 3 18260553373198332731
14251764 46 17822288042276462685
14919807 6 17532360973369148237
15065858 18 18334853945165111165
15152005 1 18050288060137846014
15328684 2 17417545617972485563
19841028 212 18410855460592717147
20165401 70 18412823577394807263
20587220 46 17988647359799575174
20771845 140 16773798073684506415
21360442 33 18334574603927699786
21362267 313 18202290174389841849
2835820 82 18336264544314427275
57676310 108 17415856700438471366
57676310 82 18129364056702877648
57828716 16 17560807585194245537
57828716 42 18340771448175012166
57828716 57 16914551944243627342
9937071 3 18261111903218053411

> <PUBCHEM_SHAPE_MULTIPOLES>
523.33
42.35
4.79
0.95
162.31
2.92
0.17
34.34
1.59
-18.31
0.48
-1.15
-0.38
1.43

> <PUBCHEM_SHAPE_SELFOVERLAP>
1014.446

> <PUBCHEM_SHAPE_VOLUME>
316.4

> <PUBCHEM_COORDINATE_TYPE>
2
5
10

$$$$
