6442660
  -OEChem-02172602263D

 64 65  0     1  0  0  0  0  0999 V2000
    2.8228   -0.1298    0.0544 O   0  0  0  0  0  0  0  0  0  0  0  0
   -0.9129   -0.0158   -0.7701 O   0  0  0  0  0  0  0  0  0  0  0  0
   -3.3708   -2.5916   -0.9598 O   0  0  0  0  0  0  0  0  0  0  0  0
   -1.4941   -1.0386    1.7886 O   0  0  0  0  0  0  0  0  0  0  0  0
   -3.2100    0.8075    0.3696 O   0  0  0  0  0  0  0  0  0  0  0  0
   -1.2092   -1.8167   -2.1641 O   0  0  0  0  0  0  0  0  0  0  0  0
    4.7594   -0.4964    1.2446 O   0  0  0  0  0  0  0  0  0  0  0  0
   -5.2626    1.8161    0.6951 O   0  0  0  0  0  0  0  0  0  0  0  0
    1.5784    3.2122    0.6400 N   0  0  1  0  0  0  0  0  0  0  0  0
    1.2621    1.7553    0.4419 C   0  0  2  0  0  0  0  0  0  0  0  0
    2.5387    1.0031    0.8473 C   0  0  2  0  0  0  0  0  0  0  0  0
    3.6396    2.0418    0.7393 C   0  0  0  0  0  0  0  0  0  0  0  0
    2.9344    3.2981    1.2030 C   0  0  0  0  0  0  0  0  0  0  0  0
    0.8033    1.6396   -0.9833 C   0  0  0  0  0  0  0  0  0  0  0  0
    1.4871    3.8431   -0.6974 C   0  0  0  0  0  0  0  0  0  0  0  0
    0.9236    2.8120   -1.6095 C   0  0  0  0  0  0  0  0  0  0  0  0
    0.2150    0.3964   -1.5484 C   0  0  0  0  0  0  0  0  0  0  0  0
   -2.7353   -1.4860   -0.2828 C   0  0  2  0  0  0  0  0  0  0  0  0
   -2.2757   -2.0263    1.1124 C   0  0  0  0  0  0  0  0  0  0  0  0
   -3.7886   -0.3421   -0.2645 C   0  0  2  0  0  0  0  0  0  0  0  0
   -1.5415   -1.1499   -1.1904 C   0  0  0  0  0  0  0  0  0  0  0  0
    3.9735   -0.7979    0.3578 C   0  0  0  0  0  0  0  0  0  0  0  0
   -1.4028   -3.2888    0.9831 C   0  0  0  0  0  0  0  0  0  0  0  0
   -3.4732   -2.3617    2.0183 C   0  0  0  0  0  0  0  0  0  0  0  0
   -4.3885    0.1047   -1.5918 C   0  0  0  0  0  0  0  0  0  0  0  0
    4.1390   -1.9616   -0.5652 C   0  0  0  0  0  0  0  0  0  0  0  0
    4.8503   -1.7416   -1.8674 C   0  0  0  0  0  0  0  0  0  0  0  0
    3.5970   -3.1217   -0.1508 C   0  0  0  0  0  0  0  0  0  0  0  0
   -4.0506    1.8662    0.5348 C   0  0  0  0  0  0  0  0  0  0  0  0
    2.8532   -3.3692    1.1232 C   0  0  0  0  0  0  0  0  0  0  0  0
   -3.2616    3.1397    0.4922 C   0  0  0  0  0  0  0  0  0  0  0  0
    0.4389    1.4852    1.1143 H   0  0  0  0  0  0  0  0  0  0  0  0
    2.4320    0.6900    1.8960 H   0  0  0  0  0  0  0  0  0  0  0  0
    4.5047    1.8383    1.3756 H   0  0  0  0  0  0  0  0  0  0  0  0
    3.9981    2.1367   -0.2932 H   0  0  0  0  0  0  0  0  0  0  0  0
    3.4691    4.2137    0.9288 H   0  0  0  0  0  0  0  0  0  0  0  0
    2.8520    3.2936    2.2971 H   0  0  0  0  0  0  0  0  0  0  0  0
    0.8174    4.7072   -0.6401 H   0  0  0  0  0  0  0  0  0  0  0  0
    2.4546    4.1826   -1.0851 H   0  0  0  0  0  0  0  0  0  0  0  0
    0.6418    3.0019   -2.6350 H   0  0  0  0  0  0  0  0  0  0  0  0
    0.9586   -0.4064   -1.5657 H   0  0  0  0  0  0  0  0  0  0  0  0
   -0.1171    0.5708   -2.5794 H   0  0  0  0  0  0  0  0  0  0  0  0
   -4.6375   -0.6823    0.3417 H   0  0  0  0  0  0  0  0  0  0  0  0
   -0.5035   -3.0878    0.3915 H   0  0  0  0  0  0  0  0  0  0  0  0
   -1.0457   -3.6131    1.9678 H   0  0  0  0  0  0  0  0  0  0  0  0
   -1.9443   -4.1224    0.5255 H   0  0  0  0  0  0  0  0  0  0  0  0
   -3.1283   -2.8021    2.9617 H   0  0  0  0  0  0  0  0  0  0  0  0
   -4.1606   -3.0699    1.5455 H   0  0  0  0  0  0  0  0  0  0  0  0
   -4.0278   -1.4624    2.3058 H   0  0  0  0  0  0  0  0  0  0  0  0
   -3.6295    0.5861   -2.2186 H   0  0  0  0  0  0  0  0  0  0  0  0
   -5.2040    0.8246   -1.4828 H   0  0  0  0  0  0  0  0  0  0  0  0
   -4.8062   -0.7392   -2.1484 H   0  0  0  0  0  0  0  0  0  0  0  0
   -3.5274   -2.3459   -1.8865 H   0  0  0  0  0  0  0  0  0  0  0  0
   -2.0364   -0.2368    1.8793 H   0  0  0  0  0  0  0  0  0  0  0  0
    5.8784   -1.4129   -1.6858 H   0  0  0  0  0  0  0  0  0  0  0  0
    4.3379   -0.9730   -2.4549 H   0  0  0  0  0  0  0  0  0  0  0  0
    4.8879   -2.6566   -2.4672 H   0  0  0  0  0  0  0  0  0  0  0  0
    3.6915   -3.9887   -0.8019 H   0  0  0  0  0  0  0  0  0  0  0  0
   -2.7712    3.2387   -0.4796 H   0  0  0  0  0  0  0  0  0  0  0  0
   -2.5226    3.1451    1.2975 H   0  0  0  0  0  0  0  0  0  0  0  0
   -3.9358    3.9895    0.6314 H   0  0  0  0  0  0  0  0  0  0  0  0
    3.3923   -4.1081    1.7242 H   0  0  0  0  0  0  0  0  0  0  0  0
    1.8646   -3.7784    0.8938 H   0  0  0  0  0  0  0  0  0  0  0  0
    2.7073   -2.4780    1.7382 H   0  0  0  0  0  0  0  0  0  0  0  0
  1 11  1  0  0  0  0
  1 22  1  0  0  0  0
  2 17  1  0  0  0  0
  2 21  1  0  0  0  0
  3 18  1  0  0  0  0
  3 53  1  0  0  0  0
  4 19  1  0  0  0  0
  4 54  1  0  0  0  0
  5 20  1  0  0  0  0
  5 29  1  0  0  0  0
  6 21  2  0  0  0  0
  7 22  2  0  0  0  0
  8 29  2  0  0  0  0
  9 10  1  0  0  0  0
  9 13  1  0  0  0  0
  9 15  1  0  0  0  0
 10 11  1  0  0  0  0
 10 14  1  0  0  0  0
 10 32  1  0  0  0  0
 11 12  1  0  0  0  0
 11 33  1  0  0  0  0
 12 13  1  0  0  0  0
 12 34  1  0  0  0  0
 12 35  1  0  0  0  0
 13 36  1  0  0  0  0
 13 37  1  0  0  0  0
 14 16  2  0  0  0  0
 14 17  1  0  0  0  0
 15 16  1  0  0  0  0
 15 38  1  0  0  0  0
 15 39  1  0  0  0  0
 16 40  1  0  0  0  0
 17 41  1  0  0  0  0
 17 42  1  0  0  0  0
 18 19  1  0  0  0  0
 18 20  1  0  0  0  0
 18 21  1  0  0  0  0
 19 23  1  0  0  0  0
 19 24  1  0  0  0  0
 20 25  1  0  0  0  0
 20 43  1  0  0  0  0
 22 26  1  0  0  0  0
 23 44  1  0  0  0  0
 23 45  1  0  0  0  0
 23 46  1  0  0  0  0
 24 47  1  0  0  0  0
 24 48  1  0  0  0  0
 24 49  1  0  0  0  0
 25 50  1  0  0  0  0
 25 51  1  0  0  0  0
 25 52  1  0  0  0  0
 26 27  1  0  0  0  0
 26 28  2  0  0  0  0
 27 55  1  0  0  0  0
 27 56  1  0  0  0  0
 27 57  1  0  0  0  0
 28 30  1  0  0  0  0
 28 58  1  0  0  0  0
 29 31  1  0  0  0  0
 30 62  1  0  0  0  0
 30 63  1  0  0  0  0
 30 64  1  0  0  0  0
 31 59  1  0  0  0  0
 31 60  1  0  0  0  0
 31 61  1  0  0  0  0
M  END
> <PUBCHEM_COMPOUND_CID>
6442660

> <PUBCHEM_CONFORMER_RMSD>
1.2

> <PUBCHEM_CONFORMER_DIVERSEORDER>
1
185
57
135
104
118
203
130
196
168
50
60
160
73
165
155
74
194
39
162
90
127
172
195
164
134
129
113
180
40
201
87
205
72
121
84
64
41
63
107
67
169
161
212
213
56
182
199
103
146
106
193
122
32
94
80
206
19
179
167
166
176
188
148
202
191
158
152
52
138
141
49
123
154
105
120
149
112
151
140
174
119
23
21
58
101
175
33
9
27
211
136
171
92
181
29
197
187
124
131
190
95
43
117
173
144
150
98
207
28
177
65
78
210
91
93
102
71
37
96
200
59
128
47
86
45
204
44
31
89
116
192
24
66
186
69
97
22
133
178
51
81
85
42
16
79
36
209
157
137
20
156
108
109
100
183
198
53
38
184
14
6
110
17
30
145
54
77
8
170
142
132
55
18
48
46
159
34
7
88
75
139
10
125
153
62
70
4
83
35
115
11
208
5
26
143
114
163
126
68
111
25
61
2
189
13
3
76
82
147
15
12
99

> <PUBCHEM_MMFF94_PARTIAL_CHARGES>
31
1 -0.43
10 0.41
11 0.28
13 0.27
14 -0.28
15 0.41
16 -0.29
17 0.42
18 0.34
19 0.28
2 -0.43
20 0.28
21 0.66
22 0.71
26 -0.12
27 0.14
28 -0.29
29 0.66
3 -0.68
30 0.14
31 0.06
4 -0.68
40 0.15
5 -0.43
53 0.4
54 0.4
58 0.15
6 -0.57
7 -0.57
8 -0.57
9 -0.81

> <PUBCHEM_EFFECTIVE_ROTOR_COUNT>
11.8

> <PUBCHEM_PHARMACOPHORE_FEATURES>
13
1 27 hydrophobe
1 3 acceptor
1 3 donor
1 30 hydrophobe
1 4 acceptor
1 4 donor
1 6 acceptor
1 7 acceptor
1 8 acceptor
1 9 cation
3 19 23 24 hydrophobe
5 9 10 11 12 13 rings
5 9 10 14 15 16 rings

> <PUBCHEM_HEAVY_ATOM_COUNT>
31

> <PUBCHEM_ATOM_DEF_STEREO_COUNT>
4

> <PUBCHEM_ATOM_UDEF_STEREO_COUNT>
0

> <PUBCHEM_BOND_DEF_STEREO_COUNT>
1

> <PUBCHEM_BOND_UDEF_STEREO_COUNT>
0

> <PUBCHEM_ISOTOPIC_ATOM_COUNT>
0

> <PUBCHEM_COMPONENT_COUNT>
1

> <PUBCHEM_CACTVS_TAUTO_COUNT>
1

> <PUBCHEM_CONFORMER_ID>
00624EA400000001

> <PUBCHEM_MMFF94_ENERGY>
76.7214

> <PUBCHEM_FEATURE_SELFOVERLAP>
66.478

> <PUBCHEM_SHAPE_FINGERPRINT>
12553582 1 18264479599437801286
12596599 1 17459180957809699441
12633257 1 18335126566906040968
12788726 201 17904487303350076402
13533116 47 18340764944501729599
13583140 156 17986955352156659993
14020679 6 18188785954558663203
14251757 5 18190475865328388596
15420108 30 17264965092617914425
17349148 13 15698002950347881517
17492 89 18269552900333026007
17818456 19 17988641865797372657
17974551 9 18342452647136655969
1813 80 17822573815829576508
19930381 70 17832423472840313027
20429585 67 9222933890625648157
20600515 1 18191043213196394220
20739085 24 18190445238286541356
21033648 29 17632284645070965370
21585483 110 17469598512898565717
23559900 14 18337103583133380713
3493558 16 16770142038877353731
35225 105 17473566658984324578
404807 14 16050150982934483775
437815 12 17987522511779106326
445580 2 18264209106275553201
5081480 168 17272606925958301262
563151 74 16700866390063050744
6287921 2 18046634683265550854
7097593 13 18341045310870755028
9709674 26 18190452960062174299

> <PUBCHEM_SHAPE_MULTIPOLES>
586.03
9.83
5.14
1.78
0.68
1.27
0.33
-2.28
-0.69
-1.98
-1.01
0.19
-0.55
0.83

> <PUBCHEM_SHAPE_SELFOVERLAP>
1206.791

> <PUBCHEM_SHAPE_VOLUME>
337

> <PUBCHEM_COORDINATE_TYPE>
2
5
10

$$$$
