12901323
  -OEChem-02172602493D

 31 32  0     1  0  0  0  0  0999 V2000
   -0.9062    0.0705    1.5366 S   0  0  0  0  0  0  0  0  0  0  0  0
    1.9059    0.8769    1.7688 F   0  0  0  0  0  0  0  0  0  0  0  0
    2.8127    2.1182   -0.1646 O   0  0  0  0  0  0  0  0  0  0  0  0
    2.8861   -1.6400    1.6651 O   0  0  0  0  0  0  0  0  0  0  0  0
    3.1362    0.1662   -1.3570 O   0  0  0  0  0  0  0  0  0  0  0  0
    0.0825   -2.6596   -1.8522 O   0  0  0  0  0  0  0  0  0  0  0  0
   -0.0431   -0.5598   -0.9295 N   0  0  0  0  0  0  0  0  0  0  0  0
    1.4313   -2.1588   -0.0512 N   0  0  0  0  0  0  0  0  0  0  0  0
    1.7266    0.1858    0.6043 C   0  0  2  0  0  0  0  0  0  0  0  0
    0.2691    0.3469    0.1609 C   0  0  2  0  0  0  0  0  0  0  0  0
    2.0690   -1.2799    0.8195 C   0  0  0  0  0  0  0  0  0  0  0  0
    2.6396    0.7922   -0.4303 C   0  0  0  0  0  0  0  0  0  0  0  0
    0.4587   -1.8484   -1.0048 C   0  0  0  0  0  0  0  0  0  0  0  0
   -2.4711    0.2905    0.7016 C   0  0  0  0  0  0  0  0  0  0  0  0
   -2.7628    1.5045    0.0852 C   0  0  0  0  0  0  0  0  0  0  0  0
   -3.3919   -0.7534    0.6706 C   0  0  0  0  0  0  0  0  0  0  0  0
   -3.9840    1.6759   -0.5667 C   0  0  0  0  0  0  0  0  0  0  0  0
   -4.6131   -0.5822    0.0187 C   0  0  0  0  0  0  0  0  0  0  0  0
   -4.9091    0.6325   -0.6000 C   0  0  0  0  0  0  0  0  0  0  0  0
    3.6636    2.8219   -1.0751 C   0  0  0  0  0  0  0  0  0  0  0  0
    0.1095    1.3635   -0.2142 H   0  0  0  0  0  0  0  0  0  0  0  0
   -0.7488   -0.2801   -1.6038 H   0  0  0  0  0  0  0  0  0  0  0  0
    1.7246   -3.1308   -0.0059 H   0  0  0  0  0  0  0  0  0  0  0  0
   -2.0620    2.3349    0.1066 H   0  0  0  0  0  0  0  0  0  0  0  0
   -3.1774   -1.7071    1.1462 H   0  0  0  0  0  0  0  0  0  0  0  0
   -4.2156    2.6223   -1.0466 H   0  0  0  0  0  0  0  0  0  0  0  0
   -5.3335   -1.3945   -0.0077 H   0  0  0  0  0  0  0  0  0  0  0  0
   -5.8601    0.7660   -1.1072 H   0  0  0  0  0  0  0  0  0  0  0  0
    3.2460    2.7882   -2.0859 H   0  0  0  0  0  0  0  0  0  0  0  0
    4.6711    2.3957   -1.0581 H   0  0  0  0  0  0  0  0  0  0  0  0
    3.7181    3.8650   -0.7524 H   0  0  0  0  0  0  0  0  0  0  0  0
  1 10  1  0  0  0  0
  1 14  1  0  0  0  0
  2  9  1  0  0  0  0
  3 12  1  0  0  0  0
  3 20  1  0  0  0  0
  4 11  2  0  0  0  0
  5 12  2  0  0  0  0
  6 13  2  0  0  0  0
  7 10  1  0  0  0  0
  7 13  1  0  0  0  0
  7 22  1  0  0  0  0
  8 11  1  0  0  0  0
  8 13  1  0  0  0  0
  8 23  1  0  0  0  0
  9 10  1  0  0  0  0
  9 11  1  0  0  0  0
  9 12  1  0  0  0  0
 10 21  1  0  0  0  0
 14 15  2  0  0  0  0
 14 16  1  0  0  0  0
 15 17  1  0  0  0  0
 15 24  1  0  0  0  0
 16 18  2  0  0  0  0
 16 25  1  0  0  0  0
 17 19  2  0  0  0  0
 17 26  1  0  0  0  0
 18 19  1  0  0  0  0
 18 27  1  0  0  0  0
 19 28  1  0  0  0  0
 20 29  1  0  0  0  0
 20 30  1  0  0  0  0
 20 31  1  0  0  0  0
M  END
> <PUBCHEM_COMPOUND_CID>
12901323

> <PUBCHEM_CONFORMER_RMSD>
0.6

> <PUBCHEM_CONFORMER_DIVERSEORDER>
1
16
5
17
13
21
20
9
10
12
3
15
8
6
2
19
18
7
14
11
4

> <PUBCHEM_MMFF94_PARTIAL_CHARGES>
27
1 -0.33
10 0.53
11 0.57
12 0.66
13 0.69
14 0.1
15 -0.15
16 -0.15
17 -0.15
18 -0.15
19 -0.15
2 -0.34
20 0.28
22 0.37
23 0.37
24 0.15
25 0.15
26 0.15
27 0.15
28 0.15
3 -0.43
4 -0.57
5 -0.57
6 -0.57
7 -0.73
8 -0.49
9 0.46

> <PUBCHEM_EFFECTIVE_ROTOR_COUNT>
4.8

> <PUBCHEM_PHARMACOPHORE_FEATURES>
7
1 4 acceptor
1 5 acceptor
1 6 acceptor
1 7 donor
1 8 donor
6 14 15 16 17 18 19 rings
6 7 8 9 10 11 13 rings

> <PUBCHEM_HEAVY_ATOM_COUNT>
20

> <PUBCHEM_ATOM_DEF_STEREO_COUNT>
2

> <PUBCHEM_ATOM_UDEF_STEREO_COUNT>
0

> <PUBCHEM_BOND_DEF_STEREO_COUNT>
0

> <PUBCHEM_BOND_UDEF_STEREO_COUNT>
0

> <PUBCHEM_ISOTOPIC_ATOM_COUNT>
0

> <PUBCHEM_COMPONENT_COUNT>
1

> <PUBCHEM_CACTVS_TAUTO_COUNT>
5

> <PUBCHEM_CONFORMER_ID>
00C4DBCB00000001

> <PUBCHEM_MMFF94_ENERGY>
46.2458

> <PUBCHEM_FEATURE_SELFOVERLAP>
35.563

> <PUBCHEM_SHAPE_FINGERPRINT>
10498660 4 18341333404703279077
10759866 29 18337389443335302895
12616999 72 18201720639517806231
12633257 1 18117274749138337049
13134695 92 18044082472000938946
13224815 77 17632573830088452227
13836976 161 18272929405946637391
14178342 30 14707215460717658865
14289901 80 18260827116236092425
14863182 85 17417524705476605430
14955137 171 18337382748298739042
15163728 17 16445920468245484238
15849732 13 18340760465188696634
17134986 127 18339928211710474668
17980427 26 17531791524586836386
18186145 218 17274821389357264929
20645477 70 18412545371373069923
21033648 29 15864061058105165917
21524375 3 18266187299767212984
21756936 100 17608658546205480396
22892500 29 17749107768670375746
23227448 37 17766562730420799892
23557571 272 16879093977708653379
23559900 14 18262792952589746891
3060560 45 18343025475741269756
3472631 163 17895467047790433973
4280585 95 17480035098506856422
458136 41 17987820569355858919
474 4 17386295414104279885
5104073 3 17894915101390225017
53917941 68 17980197810160205260
633830 44 16630248090915813009
67856867 119 18260257568754358256
74978 22 13335040291150269419
81228 2 17267207447207418663
81539 233 18334019431663958420
9709674 26 18339081476420493403

> <PUBCHEM_SHAPE_MULTIPOLES>
374.73
8.12
2.5
1.48
7.21
0.24
-0.08
3.78
1.02
-2.26
0.94
-0.72
-0.53
-0.49

> <PUBCHEM_SHAPE_SELFOVERLAP>
783.902

> <PUBCHEM_SHAPE_VOLUME>
214

> <PUBCHEM_COORDINATE_TYPE>
2
5
10

$$$$
