10115044
  -OEChem-02172602533D

 64 67  0     1  0  0  0  0  0999 V2000
    0.5433    0.6742   -1.0368 O   0  0  0  0  0  0  0  0  0  0  0  0
    4.5859   -1.4404   -2.9680 O   0  0  0  0  0  0  0  0  0  0  0  0
    5.2648   -0.2572   -1.1543 O   0  0  0  0  0  0  0  0  0  0  0  0
   -1.3090   -3.4482    2.9482 O   0  0  0  0  0  0  0  0  0  0  0  0
   -2.4843   -0.3509   -0.7937 N   0  0  0  0  0  0  0  0  0  0  0  0
    2.5431    0.6598    0.2037 N   0  0  0  0  0  0  0  0  0  0  0  0
    1.5544    2.6377   -0.2242 N   0  0  0  0  0  0  0  0  0  0  0  0
   -1.7035    1.6291    0.2768 N   0  0  0  0  0  0  0  0  0  0  0  0
   -0.3427   -2.7268    0.9657 N   0  0  0  0  0  0  0  0  0  0  0  0
   -2.9521   -2.4587   -1.8475 C   0  0  0  0  0  0  0  0  0  0  0  0
   -2.3280   -2.6036   -3.2044 C   0  0  0  0  0  0  0  0  0  0  0  0
   -3.6586   -3.2361   -2.9190 C   0  0  0  0  0  0  0  0  0  0  0  0
   -3.4944   -1.1305   -1.4317 C   0  0  0  0  0  0  0  0  0  0  0  0
    3.3782    1.6384    0.8685 C   0  0  0  0  0  0  0  0  0  0  0  0
    2.7605    2.9799    0.5006 C   0  0  0  0  0  0  0  0  0  0  0  0
    2.8259   -0.7573    0.2677 C   0  0  2  0  0  0  0  0  0  0  0  0
    1.4352    1.2516   -0.4282 C   0  0  0  0  0  0  0  0  0  0  0  0
    0.6458    3.6489   -0.7183 C   0  0  0  0  0  0  0  0  0  0  0  0
   -2.7193    0.9622   -0.3157 C   0  0  0  0  0  0  0  0  0  0  0  0
   -0.0020    4.4567    0.4046 C   0  0  0  0  0  0  0  0  0  0  0  0
    3.0678   -1.3149   -1.1448 C   0  0  0  0  0  0  0  0  0  0  0  0
   -0.8508    3.6267    1.3768 C   0  0  0  0  0  0  0  0  0  0  0  0
    1.7246   -1.4747    1.0236 C   0  0  0  0  0  0  0  0  0  0  0  0
   -1.9800    2.8778    0.7149 C   0  0  0  0  0  0  0  0  0  0  0  0
   -3.9917    1.4823   -0.4897 C   0  0  0  0  0  0  0  0  0  0  0  0
   -3.2178    3.4878    0.5891 C   0  0  0  0  0  0  0  0  0  0  0  0
    1.7438   -1.5563    2.4117 C   0  0  0  0  0  0  0  0  0  0  0  0
    0.6687   -2.0711    0.3535 C   0  0  0  0  0  0  0  0  0  0  0  0
    4.4199   -0.9407   -1.7152 C   0  0  0  0  0  0  0  0  0  0  0  0
   -4.2375    2.7699   -0.0259 C   0  0  0  0  0  0  0  0  0  0  0  0
    0.7209   -2.2226    3.0775 C   0  0  0  0  0  0  0  0  0  0  0  0
   -0.2901   -2.7855    2.3153 C   0  0  0  0  0  0  0  0  0  0  0  0
   -2.3210   -4.0073    2.1193 C   0  0  0  0  0  0  0  0  0  0  0  0
   -2.5337   -3.0251   -1.0248 H   0  0  0  0  0  0  0  0  0  0  0  0
   -1.4675   -3.2553   -3.2942 H   0  0  0  0  0  0  0  0  0  0  0  0
   -2.3089   -1.7456   -3.8650 H   0  0  0  0  0  0  0  0  0  0  0  0
   -3.6928   -4.3143   -2.8202 H   0  0  0  0  0  0  0  0  0  0  0  0
   -4.5338   -2.8022   -3.3867 H   0  0  0  0  0  0  0  0  0  0  0  0
   -4.3265   -1.3163   -0.7418 H   0  0  0  0  0  0  0  0  0  0  0  0
   -3.8910   -0.6061   -2.3102 H   0  0  0  0  0  0  0  0  0  0  0  0
   -1.5481   -0.7155   -0.6661 H   0  0  0  0  0  0  0  0  0  0  0  0
    3.3383    1.4607    1.9480 H   0  0  0  0  0  0  0  0  0  0  0  0
    4.4127    1.5581    0.5256 H   0  0  0  0  0  0  0  0  0  0  0  0
    3.4160    3.5591   -0.1574 H   0  0  0  0  0  0  0  0  0  0  0  0
    2.5247    3.5682    1.3914 H   0  0  0  0  0  0  0  0  0  0  0  0
    3.7522   -0.8857    0.8447 H   0  0  0  0  0  0  0  0  0  0  0  0
    1.2271    4.3194   -1.3617 H   0  0  0  0  0  0  0  0  0  0  0  0
   -0.1112    3.1794   -1.3544 H   0  0  0  0  0  0  0  0  0  0  0  0
   -0.6349    5.2279   -0.0528 H   0  0  0  0  0  0  0  0  0  0  0  0
    0.7653    4.9908    0.9772 H   0  0  0  0  0  0  0  0  0  0  0  0
    3.0570   -2.4123   -1.1120 H   0  0  0  0  0  0  0  0  0  0  0  0
    2.3061   -0.9841   -1.8589 H   0  0  0  0  0  0  0  0  0  0  0  0
   -1.2564    4.2865    2.1542 H   0  0  0  0  0  0  0  0  0  0  0  0
   -0.2134    2.9068    1.9057 H   0  0  0  0  0  0  0  0  0  0  0  0
   -4.8099    0.9510   -0.9611 H   0  0  0  0  0  0  0  0  0  0  0  0
    2.5489   -1.1041    2.9842 H   0  0  0  0  0  0  0  0  0  0  0  0
   -3.3991    4.4935    0.9526 H   0  0  0  0  0  0  0  0  0  0  0  0
    0.5757   -2.0515   -0.7267 H   0  0  0  0  0  0  0  0  0  0  0  0
   -5.2217    3.2136   -0.1430 H   0  0  0  0  0  0  0  0  0  0  0  0
    0.7211   -2.2948    4.1596 H   0  0  0  0  0  0  0  0  0  0  0  0
    5.4551   -1.1914   -3.3483 H   0  0  0  0  0  0  0  0  0  0  0  0
   -3.0460   -4.5101    2.7661 H   0  0  0  0  0  0  0  0  0  0  0  0
   -1.9036   -4.7546    1.4361 H   0  0  0  0  0  0  0  0  0  0  0  0
   -2.8497   -3.2240    1.5660 H   0  0  0  0  0  0  0  0  0  0  0  0
  1 17  2  0  0  0  0
  2 29  1  0  0  0  0
  2 61  1  0  0  0  0
  3 29  2  0  0  0  0
  4 32  1  0  0  0  0
  4 33  1  0  0  0  0
  5 13  1  0  0  0  0
  5 19  1  0  0  0  0
  5 41  1  0  0  0  0
  6 14  1  0  0  0  0
  6 16  1  0  0  0  0
  6 17  1  0  0  0  0
  7 15  1  0  0  0  0
  7 17  1  0  0  0  0
  7 18  1  0  0  0  0
  8 19  1  0  0  0  0
  8 24  2  0  0  0  0
  9 28  1  0  0  0  0
  9 32  2  0  0  0  0
 10 11  1  0  0  0  0
 10 12  1  0  0  0  0
 10 13  1  0  0  0  0
 10 34  1  0  0  0  0
 11 12  1  0  0  0  0
 11 35  1  0  0  0  0
 11 36  1  0  0  0  0
 12 37  1  0  0  0  0
 12 38  1  0  0  0  0
 13 39  1  0  0  0  0
 13 40  1  0  0  0  0
 14 15  1  0  0  0  0
 14 42  1  0  0  0  0
 14 43  1  0  0  0  0
 15 44  1  0  0  0  0
 15 45  1  0  0  0  0
 16 21  1  0  0  0  0
 16 23  1  0  0  0  0
 16 46  1  0  0  0  0
 18 20  1  0  0  0  0
 18 47  1  0  0  0  0
 18 48  1  0  0  0  0
 19 25  2  0  0  0  0
 20 22  1  0  0  0  0
 20 49  1  0  0  0  0
 20 50  1  0  0  0  0
 21 29  1  0  0  0  0
 21 51  1  0  0  0  0
 21 52  1  0  0  0  0
 22 24  1  0  0  0  0
 22 53  1  0  0  0  0
 22 54  1  0  0  0  0
 23 27  1  0  0  0  0
 23 28  2  0  0  0  0
 24 26  1  0  0  0  0
 25 30  1  0  0  0  0
 25 55  1  0  0  0  0
 26 30  2  0  0  0  0
 26 57  1  0  0  0  0
 27 31  2  0  0  0  0
 27 56  1  0  0  0  0
 28 58  1  0  0  0  0
 30 59  1  0  0  0  0
 31 32  1  0  0  0  0
 31 60  1  0  0  0  0
 33 62  1  0  0  0  0
 33 63  1  0  0  0  0
 33 64  1  0  0  0  0
M  END
> <PUBCHEM_COMPOUND_CID>
10115044

> <PUBCHEM_CONFORMER_RMSD>
1.2

> <PUBCHEM_CONFORMER_DIVERSEORDER>
1
68
36
62
74
86
35
45
93
40
61
11
102
77
23
4
107
108
50
75
79
3
58
101
70
5
78
22
48
7
42
31
87
51
105
21
89
64
30
98
95
34
17
109
71
12
80
10
57
104
69
32
81
28
26
110
90
99
59
25
20
82
53
41
46
73
84
94
8
85
103
38
52
88
100
2
24
14
83
96
76
67
49
47
65
91
92
39
27
18
72
56
54
106
66
97
13
16
37
15
55
60
43
9
29
6
33
63
44
19

> <PUBCHEM_MMFF94_PARTIAL_CHARGES>
45
1 -0.57
10 -0.19
11 -0.2
12 -0.2
13 0.46
14 0.3
15 0.3
16 0.44
17 0.69
18 0.3
19 0.41
2 -0.65
21 0.06
22 0.14
23 -0.14
24 0.17
25 -0.15
26 -0.15
27 -0.15
28 0.16
29 0.66
3 -0.57
30 -0.15
31 -0.15
32 0.39
33 0.28
34 0.1
35 0.1
36 0.1
37 0.1
38 0.1
4 -0.36
41 0.4
5 -0.87
55 0.15
56 0.15
57 0.15
58 0.15
59 0.15
6 -0.66
60 0.15
61 0.5
7 -0.66
8 -0.62
9 -0.62

> <PUBCHEM_EFFECTIVE_ROTOR_COUNT>
13.4

> <PUBCHEM_PHARMACOPHORE_FEATURES>
10
1 1 acceptor
1 2 acceptor
1 3 acceptor
1 5 cation
1 5 donor
1 8 acceptor
3 2 3 29 anion
5 6 7 14 15 17 rings
6 8 19 24 25 26 30 rings
6 9 23 27 28 31 32 rings

> <PUBCHEM_HEAVY_ATOM_COUNT>
33

> <PUBCHEM_ATOM_DEF_STEREO_COUNT>
1

> <PUBCHEM_ATOM_UDEF_STEREO_COUNT>
0

> <PUBCHEM_BOND_DEF_STEREO_COUNT>
0

> <PUBCHEM_BOND_UDEF_STEREO_COUNT>
0

> <PUBCHEM_ISOTOPIC_ATOM_COUNT>
0

> <PUBCHEM_COMPONENT_COUNT>
1

> <PUBCHEM_CACTVS_TAUTO_COUNT>
3

> <PUBCHEM_CONFORMER_ID>
009A57E400000001

> <PUBCHEM_MMFF94_ENERGY>
87.9202

> <PUBCHEM_FEATURE_SELFOVERLAP>
50.809

> <PUBCHEM_SHAPE_FINGERPRINT>
10032420 55 17979048790154608949
10675989 125 17689684852470328973
12107698 1 18412826897736687079
13642711 20 14013455127181542390
14114206 34 18260544524093131447
14279260 333 18190755137441427478
17909252 39 17988363801235386844
19026451 147 17550061147354488663
19311894 1 18341609265883466639
19319366 153 17899145913973389586
20587220 17 17335367281964265579
20764821 26 16754083066010957277
23559900 14 17702374053208368920
238 59 17404849840342236679
3380486 77 17115169899938416077
4409770 3 16749310081587470308
463206 1 18340197579296145233
469060 322 15214170581424460411
70251023 43 18056192716439692895

> <PUBCHEM_SHAPE_MULTIPOLES>
630.74
7.67
6.46
3.04
2.16
2.78
0.09
-0.64
-5.54
-4.65
2.02
-0.06
-4.99
-1.3

> <PUBCHEM_SHAPE_SELFOVERLAP>
1327.079

> <PUBCHEM_SHAPE_VOLUME>
354

> <PUBCHEM_COORDINATE_TYPE>
2
5
10

$$$$
