5317580
  -OEChem-02172602383D

 49 53  0     1  0  0  0  0  0999 V2000
   -1.6407   -1.6848   -1.1434 O   0  0  0  0  0  0  0  0  0  0  0  0
    4.6083   -0.5184    1.2150 O   0  0  0  0  0  0  0  0  0  0  0  0
   -4.4557    0.0844    1.2886 O   0  0  0  0  0  0  0  0  0  0  0  0
   -3.8057   -1.1774   -1.7859 O   0  0  0  0  0  0  0  0  0  0  0  0
    0.3990    3.2503    1.2980 O   0  0  0  0  0  0  0  0  0  0  0  0
   -0.3235    3.0249   -0.8593 O   0  0  0  0  0  0  0  0  0  0  0  0
    1.2460    0.2973    0.0902 C   0  0  1  0  0  0  0  0  0  0  0  0
   -0.7547   -1.0998   -0.1868 C   0  0  1  0  0  0  0  0  0  0  0  0
    0.7519   -1.0990   -0.5024 C   0  0  2  0  0  0  0  0  0  0  0  0
   -1.0673    0.3714   -0.3968 C   0  0  2  0  0  0  0  0  0  0  0  0
   -0.0517    1.0705    0.4849 C   0  0  2  0  0  0  0  0  0  0  0  0
   -2.5756    0.3361   -0.2634 C   0  0  2  0  0  0  0  0  0  0  0  0
    2.2450    0.0799    1.2330 C   0  0  0  0  0  0  0  0  0  0  0  0
    3.4044   -0.5805    0.4739 C   0  0  2  0  0  0  0  0  0  0  0  0
    2.1562    0.9999   -0.9496 C   0  0  0  0  0  0  0  0  0  0  0  0
    1.5545   -2.3047    0.0082 C   0  0  0  0  0  0  0  0  0  0  0  0
   -1.1181   -1.6411    1.2224 C   0  0  0  0  0  0  0  0  0  0  0  0
    3.0633   -2.0369    0.0989 C   0  0  0  0  0  0  0  0  0  0  0  0
   -3.0365    0.0232    1.1710 C   0  0  2  0  0  0  0  0  0  0  0  0
    3.4721    0.2885   -0.7681 C   0  0  0  0  0  0  0  0  0  0  0  0
   -2.5608   -1.3536    1.6354 C   0  0  0  0  0  0  0  0  0  0  0  0
   -2.7932   -0.8995   -1.1631 C   0  0  0  0  0  0  0  0  0  0  0  0
   -0.0124    2.5420    0.2190 C   0  0  0  0  0  0  0  0  0  0  0  0
   -3.2336    1.5828   -0.8453 C   0  0  0  0  0  0  0  0  0  0  0  0
    4.5287    0.4444   -1.5743 C   0  0  0  0  0  0  0  0  0  0  0  0
    0.8616   -1.0914   -1.5967 H   0  0  0  0  0  0  0  0  0  0  0  0
   -0.8509    0.6436   -1.4471 H   0  0  0  0  0  0  0  0  0  0  0  0
   -0.2905    0.9262    1.5443 H   0  0  0  0  0  0  0  0  0  0  0  0
    1.8627   -0.5483    2.0445 H   0  0  0  0  0  0  0  0  0  0  0  0
    2.5493    1.0299    1.6931 H   0  0  0  0  0  0  0  0  0  0  0  0
    2.3073    2.0580   -0.7088 H   0  0  0  0  0  0  0  0  0  0  0  0
    1.7723    0.9191   -1.9714 H   0  0  0  0  0  0  0  0  0  0  0  0
    1.3646   -3.1795   -0.6247 H   0  0  0  0  0  0  0  0  0  0  0  0
    1.2289   -2.5922    1.0130 H   0  0  0  0  0  0  0  0  0  0  0  0
   -0.4512   -1.2311    1.9879 H   0  0  0  0  0  0  0  0  0  0  0  0
   -0.9884   -2.7304    1.2410 H   0  0  0  0  0  0  0  0  0  0  0  0
    3.4969   -2.7256    0.8358 H   0  0  0  0  0  0  0  0  0  0  0  0
    3.5367   -2.3045   -0.8550 H   0  0  0  0  0  0  0  0  0  0  0  0
   -2.6367    0.7899    1.8457 H   0  0  0  0  0  0  0  0  0  0  0  0
   -3.2206   -2.1296    1.2242 H   0  0  0  0  0  0  0  0  0  0  0  0
   -2.6695   -1.4435    2.7233 H   0  0  0  0  0  0  0  0  0  0  0  0
   -2.8780    1.7883   -1.8614 H   0  0  0  0  0  0  0  0  0  0  0  0
   -4.3206    1.4653   -0.9140 H   0  0  0  0  0  0  0  0  0  0  0  0
   -3.0284    2.4629   -0.2275 H   0  0  0  0  0  0  0  0  0  0  0  0
    4.7903    0.4129    1.4279 H   0  0  0  0  0  0  0  0  0  0  0  0
    5.4575   -0.0849   -1.3926 H   0  0  0  0  0  0  0  0  0  0  0  0
    4.4815    1.1032   -2.4346 H   0  0  0  0  0  0  0  0  0  0  0  0
   -4.6820   -0.1074    2.2147 H   0  0  0  0  0  0  0  0  0  0  0  0
    0.4225    4.2139    1.1163 H   0  0  0  0  0  0  0  0  0  0  0  0
  1  8  1  0  0  0  0
  1 22  1  0  0  0  0
  2 14  1  0  0  0  0
  2 45  1  0  0  0  0
  3 19  1  0  0  0  0
  3 48  1  0  0  0  0
  4 22  2  0  0  0  0
  5 23  1  0  0  0  0
  5 49  1  0  0  0  0
  6 23  2  0  0  0  0
  7  9  1  0  0  0  0
  7 11  1  0  0  0  0
  7 13  1  0  0  0  0
  7 15  1  0  0  0  0
  8  9  1  0  0  0  0
  8 10  1  0  0  0  0
  8 17  1  0  0  0  0
  9 16  1  0  0  0  0
  9 26  1  0  0  0  0
 10 11  1  0  0  0  0
 10 12  1  0  0  0  0
 10 27  1  0  0  0  0
 11 23  1  0  0  0  0
 11 28  1  0  0  0  0
 12 19  1  0  0  0  0
 12 22  1  0  0  0  0
 12 24  1  0  0  0  0
 13 14  1  0  0  0  0
 13 29  1  0  0  0  0
 13 30  1  0  0  0  0
 14 18  1  0  0  0  0
 14 20  1  0  0  0  0
 15 20  1  0  0  0  0
 15 31  1  0  0  0  0
 15 32  1  0  0  0  0
 16 18  1  0  0  0  0
 16 33  1  0  0  0  0
 16 34  1  0  0  0  0
 17 21  1  0  0  0  0
 17 35  1  0  0  0  0
 17 36  1  0  0  0  0
 18 37  1  0  0  0  0
 18 38  1  0  0  0  0
 19 21  1  0  0  0  0
 19 39  1  0  0  0  0
 20 25  2  0  0  0  0
 21 40  1  0  0  0  0
 21 41  1  0  0  0  0
 24 42  1  0  0  0  0
 24 43  1  0  0  0  0
 24 44  1  0  0  0  0
 25 46  1  0  0  0  0
 25 47  1  0  0  0  0
M  END
> <PUBCHEM_COMPOUND_CID>
5317580

> <PUBCHEM_CONFORMER_RMSD>
0.6

> <PUBCHEM_CONFORMER_DIVERSEORDER>
1

> <PUBCHEM_MMFF94_PARTIAL_CHARGES>
21
1 -0.43
11 0.06
12 0.06
14 0.42
15 0.14
19 0.28
2 -0.68
20 -0.28
22 0.66
23 0.66
25 -0.3
3 -0.68
4 -0.57
45 0.4
46 0.15
47 0.15
48 0.4
49 0.5
5 -0.65
6 -0.57
8 0.28

> <PUBCHEM_EFFECTIVE_ROTOR_COUNT>
2.8

> <PUBCHEM_PHARMACOPHORE_FEATURES>
11
1 2 acceptor
1 2 donor
1 3 acceptor
1 3 donor
1 4 acceptor
1 5 acceptor
1 6 acceptor
3 5 6 23 anion
5 7 8 9 10 11 rings
8 1 8 10 12 17 19 21 22 rings
8 7 9 13 14 15 16 18 20 rings

> <PUBCHEM_HEAVY_ATOM_COUNT>
25

> <PUBCHEM_ATOM_DEF_STEREO_COUNT>
7

> <PUBCHEM_ATOM_UDEF_STEREO_COUNT>
1

> <PUBCHEM_BOND_DEF_STEREO_COUNT>
0

> <PUBCHEM_BOND_UDEF_STEREO_COUNT>
0

> <PUBCHEM_ISOTOPIC_ATOM_COUNT>
0

> <PUBCHEM_COMPONENT_COUNT>
1

> <PUBCHEM_CACTVS_TAUTO_COUNT>
1

> <PUBCHEM_CONFORMER_ID>
005123CC00000001

> <PUBCHEM_MMFF94_ENERGY>
111.3865

> <PUBCHEM_FEATURE_SELFOVERLAP>
56.07

> <PUBCHEM_SHAPE_FINGERPRINT>
10366900 7 18187932845246927811
104564 63 18270132196942271864
10863032 1 16950282922958299562
11132069 177 18201430355389111114
11578080 2 17558801001826925297
12011746 2 18261121802674681915
12422481 6 17765173682505135961
12553582 1 18411704296232468820
12596599 1 17632859758540099534
12633257 1 18120968167931463835
12788726 201 18269004093859982120
13027679 85 18335712675439400401
13132413 78 18410302422986101421
13140716 1 18339923839412493048
13172582 1 18271812349377353091
13224815 77 18412545422701687366
13583140 156 16226041206290473890
14289901 80 15068623820376075622
14713325 29 15950508308819386820
14787075 74 18114474443209110027
14790565 3 18267044871360688032
14955137 171 17986139450246447139
1601671 61 18269570368165375009
16752209 62 18265324019714302300
16945 1 18339073908244707383
17349148 13 18261103033636209882
17980427 23 16845003628021254801
18186145 218 17632574946395022170
19591789 44 17180832051575790604
19868273 325 18341323452978879798
20510252 161 18188780439620045273
20691752 17 18337659918979656312
20715895 44 17607795106837950957
21033648 29 16988291867562713731
21197605 99 17550970096132749017
23184049 59 18201727206417443371
2334 1 18123748918383993848
23402539 116 18335408033509191934
23419403 2 14936239218777727651
23493267 7 17967817115371817776
23558518 356 17833553396877979232
23559900 14 18116714007083247762
238 59 18118669153078296703
2748010 2 17687180207150465239
296302 2 18202558484510743514
34934 24 18270106925148603501
350125 39 17688885549537472363
352729 6 17549822187989820312
394222 165 17386572509089931040
6992083 37 18060138747643976639
74978 22 18199186385142745863
81228 2 18265897960568369976
9709674 26 18335983052331673726

> <PUBCHEM_SHAPE_MULTIPOLES>
479.27
7.17
2.6
1.5
2.06
1.49
0
-1.18
-0.61
-0.06
0.26
-0.52
-0.1
-0.27

> <PUBCHEM_SHAPE_SELFOVERLAP>
1077.753

> <PUBCHEM_SHAPE_VOLUME>
254

> <PUBCHEM_COORDINATE_TYPE>
2
5
10

$$$$
