5317576
  -OEChem-02172602373D

 60 61  0     0  0  0  0  0  0999 V2000
    0.5914   -2.8597    1.2399 O   0  0  0  0  0  0  0  0  0  0  0  0
    1.7518   -2.8152   -1.2707 O   0  0  0  0  0  0  0  0  0  0  0  0
    1.8044    0.7750    1.8275 O   0  0  0  0  0  0  0  0  0  0  0  0
    4.4020    0.9898    2.7534 O   0  0  0  0  0  0  0  0  0  0  0  0
   -3.5475    0.9780    2.1371 C   0  0  0  0  0  0  0  0  0  0  0  0
   -3.3224   -0.3635    1.4350 C   0  0  0  0  0  0  0  0  0  0  0  0
   -4.5180    1.8988    1.3876 C   0  0  0  0  0  0  0  0  0  0  0  0
   -2.4151   -1.3177    2.2210 C   0  0  0  0  0  0  0  0  0  0  0  0
   -4.0606    2.3595    0.0000 C   0  0  0  0  0  0  0  0  0  0  0  0
   -2.2284   -2.7051    1.5953 C   0  0  0  0  0  0  0  0  0  0  0  0
   -2.7844    3.2008    0.0295 C   0  0  0  0  0  0  0  0  0  0  0  0
   -1.5722   -2.6824    0.2375 C   0  0  0  0  0  0  0  0  0  0  0  0
   -2.4203    3.6979   -1.3406 C   0  0  0  0  0  0  0  0  0  0  0  0
    0.4953    1.9035   -1.2622 C   0  0  0  0  0  0  0  0  0  0  0  0
   -0.9200    1.7464   -1.8323 C   0  0  0  0  0  0  0  0  0  0  0  0
    1.2094    0.5822   -0.9492 C   0  0  0  0  0  0  0  0  0  0  0  0
   -1.5889    3.0465   -2.1672 C   0  0  0  0  0  0  0  0  0  0  0  0
   -0.1916   -2.7615    0.1278 C   0  0  0  0  0  0  0  0  0  0  0  0
   -2.3760   -2.5819   -0.8890 C   0  0  0  0  0  0  0  0  0  0  0  0
    2.6160    0.7003   -0.4204 C   0  0  0  0  0  0  0  0  0  0  0  0
    0.3984   -2.7395   -1.1361 C   0  0  0  0  0  0  0  0  0  0  0  0
   -1.7861   -2.5598   -2.1526 C   0  0  0  0  0  0  0  0  0  0  0  0
    2.8442    0.7907    0.9454 C   0  0  0  0  0  0  0  0  0  0  0  0
   -0.3988   -2.6387   -2.2763 C   0  0  0  0  0  0  0  0  0  0  0  0
    3.6692    0.7160   -1.3242 C   0  0  0  0  0  0  0  0  0  0  0  0
    4.1523    0.8992    1.4174 C   0  0  0  0  0  0  0  0  0  0  0  0
    4.9772    0.8245   -0.8523 C   0  0  0  0  0  0  0  0  0  0  0  0
    5.2188    0.9161    0.5185 C   0  0  0  0  0  0  0  0  0  0  0  0
   -2.5880    1.4811    2.2984 H   0  0  0  0  0  0  0  0  0  0  0  0
   -3.9641    0.7870    3.1341 H   0  0  0  0  0  0  0  0  0  0  0  0
   -2.8750   -0.1738    0.4553 H   0  0  0  0  0  0  0  0  0  0  0  0
   -4.2907   -0.8486    1.2623 H   0  0  0  0  0  0  0  0  0  0  0  0
   -4.7047    2.7835    2.0091 H   0  0  0  0  0  0  0  0  0  0  0  0
   -5.4831    1.3873    1.2838 H   0  0  0  0  0  0  0  0  0  0  0  0
   -1.4340   -0.8436    2.3533 H   0  0  0  0  0  0  0  0  0  0  0  0
   -2.8338   -1.4527    3.2263 H   0  0  0  0  0  0  0  0  0  0  0  0
   -3.9347    1.4930   -0.6591 H   0  0  0  0  0  0  0  0  0  0  0  0
   -4.8708    2.9563   -0.4398 H   0  0  0  0  0  0  0  0  0  0  0  0
   -3.2054   -3.2006    1.5170 H   0  0  0  0  0  0  0  0  0  0  0  0
   -1.6485   -3.3358    2.2809 H   0  0  0  0  0  0  0  0  0  0  0  0
   -1.9563    2.6428    0.4771 H   0  0  0  0  0  0  0  0  0  0  0  0
   -2.9335    4.0736    0.6775 H   0  0  0  0  0  0  0  0  0  0  0  0
   -2.8677    4.6312   -1.6714 H   0  0  0  0  0  0  0  0  0  0  0  0
    0.4517    2.5114   -0.3493 H   0  0  0  0  0  0  0  0  0  0  0  0
    1.1047    2.4763   -1.9741 H   0  0  0  0  0  0  0  0  0  0  0  0
   -1.5251    1.1447   -1.1463 H   0  0  0  0  0  0  0  0  0  0  0  0
   -0.8673    1.1543   -2.7552 H   0  0  0  0  0  0  0  0  0  0  0  0
    1.2434   -0.0057   -1.8760 H   0  0  0  0  0  0  0  0  0  0  0  0
    0.5915   -0.0117   -0.2687 H   0  0  0  0  0  0  0  0  0  0  0  0
   -1.3709    3.4822   -3.1387 H   0  0  0  0  0  0  0  0  0  0  0  0
   -3.4575   -2.5221   -0.8067 H   0  0  0  0  0  0  0  0  0  0  0  0
   -2.4066   -2.4805   -3.0404 H   0  0  0  0  0  0  0  0  0  0  0  0
    3.4932    0.6475   -2.3940 H   0  0  0  0  0  0  0  0  0  0  0  0
    0.0547   -2.6194   -3.2634 H   0  0  0  0  0  0  0  0  0  0  0  0
    5.8076    0.8382   -1.5521 H   0  0  0  0  0  0  0  0  0  0  0  0
    1.4470   -3.2532    1.0042 H   0  0  0  0  0  0  0  0  0  0  0  0
    6.2402    1.0006    0.8795 H   0  0  0  0  0  0  0  0  0  0  0  0
    2.1777   -2.5055   -0.4549 H   0  0  0  0  0  0  0  0  0  0  0  0
    0.9758    1.0237    1.3896 H   0  0  0  0  0  0  0  0  0  0  0  0
    3.5518    0.9627    3.2258 H   0  0  0  0  0  0  0  0  0  0  0  0
  1 18  1  0  0  0  0
  1 56  1  0  0  0  0
  2 21  1  0  0  0  0
  2 58  1  0  0  0  0
  3 23  1  0  0  0  0
  3 59  1  0  0  0  0
  4 26  1  0  0  0  0
  4 60  1  0  0  0  0
  5  6  1  0  0  0  0
  5  7  1  0  0  0  0
  5 29  1  0  0  0  0
  5 30  1  0  0  0  0
  6  8  1  0  0  0  0
  6 31  1  0  0  0  0
  6 32  1  0  0  0  0
  7  9  1  0  0  0  0
  7 33  1  0  0  0  0
  7 34  1  0  0  0  0
  8 10  1  0  0  0  0
  8 35  1  0  0  0  0
  8 36  1  0  0  0  0
  9 11  1  0  0  0  0
  9 37  1  0  0  0  0
  9 38  1  0  0  0  0
 10 12  1  0  0  0  0
 10 39  1  0  0  0  0
 10 40  1  0  0  0  0
 11 13  1  0  0  0  0
 11 41  1  0  0  0  0
 11 42  1  0  0  0  0
 12 18  2  0  0  0  0
 12 19  1  0  0  0  0
 13 17  2  0  0  0  0
 13 43  1  0  0  0  0
 14 15  1  0  0  0  0
 14 16  1  0  0  0  0
 14 44  1  0  0  0  0
 14 45  1  0  0  0  0
 15 17  1  0  0  0  0
 15 46  1  0  0  0  0
 15 47  1  0  0  0  0
 16 20  1  0  0  0  0
 16 48  1  0  0  0  0
 16 49  1  0  0  0  0
 17 50  1  0  0  0  0
 18 21  1  0  0  0  0
 19 22  2  0  0  0  0
 19 51  1  0  0  0  0
 20 23  2  0  0  0  0
 20 25  1  0  0  0  0
 21 24  2  0  0  0  0
 22 24  1  0  0  0  0
 22 52  1  0  0  0  0
 23 26  1  0  0  0  0
 24 54  1  0  0  0  0
 25 27  2  0  0  0  0
 25 53  1  0  0  0  0
 26 28  2  0  0  0  0
 27 28  1  0  0  0  0
 27 55  1  0  0  0  0
 28 57  1  0  0  0  0
M  END
> <PUBCHEM_COMPOUND_CID>
5317576

> <PUBCHEM_CONFORMER_RMSD>
1.6

> <PUBCHEM_CONFORMER_DIVERSEORDER>
1
20
61
128
137
16
109
5
93
118
2
8
56
21
147
122
42
130
89
67
4
9
70
57
35
135
144
80
6
156
48
43
140
133
3
18
98
53
95
96
13
45
7
33
100
87
145
50
113
40
119
154
29
91
10
101
62
71
116
46
153
94
92
54
58
34
81
63
88
107
134
74
141
117
17
39
49
85
90
110
65
19
47
44
129
83
86
104
38
84
32
60
124
150
114
78
51
127
11
36
102
123
30
112
108
75
157
126
125
72
115
12
111
103
22
73
106
149
99
105
25
23
66
151
143
138
139
27
152
15
77
24
52
79
120
131
28
136
132
82
148
55
142
68
14
64
121
97
41
76
146
69
59
31
155
37
26

> <PUBCHEM_MMFF94_PARTIAL_CHARGES>
34
1 -0.53
10 0.14
11 0.14
12 -0.14
13 -0.29
15 0.14
16 0.14
17 -0.29
18 0.08
19 -0.15
2 -0.53
20 -0.14
21 0.08
22 -0.15
23 0.08
24 -0.15
25 -0.15
26 0.08
27 -0.15
28 -0.15
3 -0.53
4 -0.53
43 0.15
50 0.15
51 0.15
52 0.15
53 0.15
54 0.15
55 0.15
56 0.45
57 0.15
58 0.45
59 0.45
60 0.45

> <PUBCHEM_EFFECTIVE_ROTOR_COUNT>
12

> <PUBCHEM_PHARMACOPHORE_FEATURES>
7
1 1 donor
1 2 donor
1 3 donor
1 4 donor
4 14 15 16 17 hydrophobe
6 12 18 19 21 22 24 rings
6 20 23 25 26 27 28 rings

> <PUBCHEM_HEAVY_ATOM_COUNT>
28

> <PUBCHEM_ATOM_DEF_STEREO_COUNT>
0

> <PUBCHEM_ATOM_UDEF_STEREO_COUNT>
0

> <PUBCHEM_BOND_DEF_STEREO_COUNT>
1

> <PUBCHEM_BOND_UDEF_STEREO_COUNT>
0

> <PUBCHEM_ISOTOPIC_ATOM_COUNT>
0

> <PUBCHEM_COMPONENT_COUNT>
1

> <PUBCHEM_CACTVS_TAUTO_COUNT>
998

> <PUBCHEM_CONFORMER_ID>
005123C800000001

> <PUBCHEM_MMFF94_ENERGY>
51.7162

> <PUBCHEM_FEATURE_SELFOVERLAP>
35.532

> <PUBCHEM_SHAPE_FINGERPRINT>
12422481 6 18335984169302732938
12522641 24 17118060426595254913
12655364 131 15266510500840399230
12717326 25 18053073187762419322
12788726 201 18117542136928096780
13402501 40 17830195518816430077
13583140 156 16056046878015021046
13642711 20 17489869314866712977
144659 39 18263352613035835624
15403338 16 17097226154094257091
19319366 153 16168103824698499285
20600515 1 17402858594930709122
23598288 3 17749377149130392308
238918 7 18338244760434002735
35225 105 18199162101624514241
469060 322 18336824294975512493
484985 159 16951381317662704746
6438718 38 18408603694758740888
9862522 239 18412830187444005331

> <PUBCHEM_SHAPE_MULTIPOLES>
552.75
8.71
5.02
2.69
8.15
1.03
-0.39
-6.25
-4.73
-5.13
2.34
-0.37
0.17
0.9

> <PUBCHEM_SHAPE_SELFOVERLAP>
1134.877

> <PUBCHEM_SHAPE_VOLUME>
316.9

> <PUBCHEM_COORDINATE_TYPE>
2
5
10

$$$$
