102065501
  -OEChem-02172602263D

 26 26  0     1  0  0  0  0  0999 V2000
    0.9761    2.2125    0.3858 O   0  0  0  0  0  0  0  0  0  0  0  0
   -4.0478   -0.6185    0.1818 O   0  0  0  0  0  0  0  0  0  0  0  0
    1.0210   -0.1930    0.3079 C   0  0  2  0  0  0  0  0  0  0  0  0
    0.2007   -1.4180   -0.1148 C   0  0  0  0  0  0  0  0  0  0  0  0
    0.4647    1.0928   -0.3397 C   0  0  1  0  0  0  0  0  0  0  0  0
   -1.2715   -1.2603    0.2775 C   0  0  0  0  0  0  0  0  0  0  0  0
    2.4659   -0.3955   -0.0429 C   0  0  0  0  0  0  0  0  0  0  0  0
   -1.8093    0.0994   -0.0453 C   0  0  0  0  0  0  0  0  0  0  0  0
   -1.0395    1.1577   -0.3366 C   0  0  0  0  0  0  0  0  0  0  0  0
    3.4298   -0.4098    1.1063 C   0  0  0  0  0  0  0  0  0  0  0  0
    2.8722   -0.5542   -1.3112 C   0  0  0  0  0  0  0  0  0  0  0  0
   -3.2622    0.2869   -0.0689 C   0  0  0  0  0  0  0  0  0  0  0  0
    0.9404   -0.0913    1.4004 H   0  0  0  0  0  0  0  0  0  0  0  0
    0.5988   -2.3301    0.3478 H   0  0  0  0  0  0  0  0  0  0  0  0
    0.2539   -1.5685   -1.2014 H   0  0  0  0  0  0  0  0  0  0  0  0
    0.7954    1.2025   -1.3789 H   0  0  0  0  0  0  0  0  0  0  0  0
   -1.3821   -1.4357    1.3548 H   0  0  0  0  0  0  0  0  0  0  0  0
   -1.8504   -2.0363   -0.2373 H   0  0  0  0  0  0  0  0  0  0  0  0
   -1.4876    2.1143   -0.5944 H   0  0  0  0  0  0  0  0  0  0  0  0
    3.3908    0.5410    1.6478 H   0  0  0  0  0  0  0  0  0  0  0  0
    4.4627   -0.5619    0.7758 H   0  0  0  0  0  0  0  0  0  0  0  0
    3.1808   -1.2183    1.8013 H   0  0  0  0  0  0  0  0  0  0  0  0
    0.6675    3.0208   -0.0585 H   0  0  0  0  0  0  0  0  0  0  0  0
    3.9213   -0.6994   -1.5481 H   0  0  0  0  0  0  0  0  0  0  0  0
    2.1807   -0.5466   -2.1465 H   0  0  0  0  0  0  0  0  0  0  0  0
   -3.6222    1.2977   -0.3246 H   0  0  0  0  0  0  0  0  0  0  0  0
  1  5  1  0  0  0  0
  1 23  1  0  0  0  0
  2 12  2  0  0  0  0
  3  4  1  0  0  0  0
  3  5  1  0  0  0  0
  3  7  1  0  0  0  0
  3 13  1  0  0  0  0
  4  6  1  0  0  0  0
  4 14  1  0  0  0  0
  4 15  1  0  0  0  0
  5  9  1  0  0  0  0
  5 16  1  0  0  0  0
  6  8  1  0  0  0  0
  6 17  1  0  0  0  0
  6 18  1  0  0  0  0
  7 10  1  0  0  0  0
  7 11  2  0  0  0  0
  8  9  2  0  0  0  0
  8 12  1  0  0  0  0
  9 19  1  0  0  0  0
 10 20  1  0  0  0  0
 10 21  1  0  0  0  0
 10 22  1  0  0  0  0
 11 24  1  0  0  0  0
 11 25  1  0  0  0  0
 12 26  1  0  0  0  0
M  END
> <PUBCHEM_COMPOUND_CID>
102065501

> <PUBCHEM_CONFORMER_RMSD>
0.6

> <PUBCHEM_CONFORMER_DIVERSEORDER>
1
2
3
4

> <PUBCHEM_MMFF94_PARTIAL_CHARGES>
16
1 -0.68
10 0.14
11 -0.3
12 0.5
19 0.15
2 -0.57
23 0.4
24 0.15
25 0.15
26 0.06
3 0.14
5 0.42
6 0.14
7 -0.28
8 -0.12
9 -0.29

> <PUBCHEM_EFFECTIVE_ROTOR_COUNT>
2.8

> <PUBCHEM_PHARMACOPHORE_FEATURES>
4
1 1 acceptor
1 1 donor
1 2 acceptor
6 3 4 5 6 8 9 rings

> <PUBCHEM_HEAVY_ATOM_COUNT>
12

> <PUBCHEM_ATOM_DEF_STEREO_COUNT>
2

> <PUBCHEM_ATOM_UDEF_STEREO_COUNT>
0

> <PUBCHEM_BOND_DEF_STEREO_COUNT>
0

> <PUBCHEM_BOND_UDEF_STEREO_COUNT>
0

> <PUBCHEM_ISOTOPIC_ATOM_COUNT>
0

> <PUBCHEM_COMPONENT_COUNT>
1

> <PUBCHEM_CACTVS_TAUTO_COUNT>
1

> <PUBCHEM_CONFORMER_ID>
0615655D00000001

> <PUBCHEM_MMFF94_ENERGY>
14.0062

> <PUBCHEM_FEATURE_SELFOVERLAP>
20.297

> <PUBCHEM_SHAPE_FINGERPRINT>
10130415 120 18187081750037094490
10219947 1 18273496762494306135
10857977 72 18340196419311518792
11062470 55 14261630633898198987
11132069 177 18411978035973105335
11206711 2 18262234422257978093
11543360 7 15430329073960036163
12032990 46 18411706447805563703
13922767 16 18412819196891739705
14115302 16 17458067070810384522
14252887 29 18130793347401457010
14344429 50 18335702775529123180
14993402 34 18409454686736086175
15310529 11 16587744226480449542
16945 1 18410013217147021703
19026448 4 16774078445081357455
19026448 5 16153430523728379711
193761 8 17833551575769589143
20201158 50 18411139121312057767
20511035 2 18120098535189378799
20645476 183 17458643244957794526
20871998 22 18271249322061753508
21293036 1 18335148591419265438
21501502 16 18124307469910992070
23380061 330 18412818092958453135
23402539 116 18271509923608402822
23402655 69 18121197811617762781
23463225 33 18115303376097240034
23552423 10 17825956093525811932
2748010 2 18120095236854948943
53812653 166 18340196384973048425
53812654 25 18335976519538392166
7364860 26 18127977609834343184

> <PUBCHEM_SHAPE_MULTIPOLES>
235.22
5.53
1.53
0.91
1.87
0.53
0.09
-1.17
-0.36
0.02
-0.09
-0.81
-0.07
0.18

> <PUBCHEM_SHAPE_SELFOVERLAP>
472.847

> <PUBCHEM_SHAPE_VOLUME>
137.5

> <PUBCHEM_COORDINATE_TYPE>
2
5
10

$$$$
