11956488
  -OEChem-02172602433D

 63 67  0     0  0  0  0  0  0999 V2000
   -5.4305    2.7687   -1.5409 Cl  0  0  0  0  0  0  0  0  0  0  0  0
   -0.7974    0.9481    0.3036 O   0  0  0  0  0  0  0  0  0  0  0  0
   -7.6939    0.1736   -0.4279 N   0  0  0  0  0  0  0  0  0  0  0  0
   -9.3627    0.4056    1.8170 N   0  0  0  0  0  0  0  0  0  0  0  0
   -0.6254   -1.2253   -0.5634 N   0  0  0  0  0  0  0  0  0  0  0  0
    1.1634   -2.7653   -0.7121 N   0  0  0  0  0  0  0  0  0  0  0  0
    4.6809   -2.4745    0.3951 N   0  0  0  0  0  0  0  0  0  0  0  0
    5.7134   -0.3704    0.2811 N   0  0  0  0  0  0  0  0  0  0  0  0
    7.0020   -2.3589    0.7199 N   0  0  0  0  0  0  0  0  0  0  0  0
    7.4740    4.0079    0.6306 N   0  0  0  0  0  0  0  0  0  0  0  0
   -6.8754    0.0474   -1.6260 C   0  0  0  0  0  0  0  0  0  0  0  0
   -5.4146    0.0571   -1.2700 C   0  0  0  0  0  0  0  0  0  0  0  0
   -4.6930    1.2437   -1.2093 C   0  0  0  0  0  0  0  0  0  0  0  0
   -4.8001   -1.1610   -1.0003 C   0  0  0  0  0  0  0  0  0  0  0  0
   -2.7159   -0.0055   -0.6028 C   0  0  0  0  0  0  0  0  0  0  0  0
   -8.1653    1.4172    0.0059 C   0  0  0  0  0  0  0  0  0  0  0  0
   -8.0972   -0.9501    0.3011 C   0  0  0  0  0  0  0  0  0  0  0  0
   -3.3392    1.2125   -0.8745 C   0  0  0  0  0  0  0  0  0  0  0  0
   -3.4463   -1.1921   -0.6656 C   0  0  0  0  0  0  0  0  0  0  0  0
   -8.9593    1.5292    1.0881 C   0  0  0  0  0  0  0  0  0  0  0  0
   -8.8915   -0.8380    1.3831 C   0  0  0  0  0  0  0  0  0  0  0  0
   -1.3046   -0.0387   -0.2537 C   0  0  0  0  0  0  0  0  0  0  0  0
    0.7315   -1.5535   -0.3226 C   0  0  0  0  0  0  0  0  0  0  0  0
    3.3339   -2.1486    0.1562 C   0  0  0  0  0  0  0  0  0  0  0  0
  -10.1795    0.5312    3.0163 C   0  0  0  0  0  0  0  0  0  0  0  0
    2.4644   -3.0337   -0.4606 C   0  0  0  0  0  0  0  0  0  0  0  0
    1.5032   -0.5951    0.2977 C   0  0  0  0  0  0  0  0  0  0  0  0
    2.8362   -0.9081    0.5394 C   0  0  0  0  0  0  0  0  0  0  0  0
    2.9406   -4.3813   -0.8969 C   0  0  0  0  0  0  0  0  0  0  0  0
    5.8560   -1.6966    0.4691 C   0  0  0  0  0  0  0  0  0  0  0  0
    6.8563    0.3424    0.3583 C   0  0  0  0  0  0  0  0  0  0  0  0
    6.7066    1.7639    0.1585 C   0  0  0  0  0  0  0  0  0  0  0  0
    8.0928   -0.2162    0.6098 C   0  0  0  0  0  0  0  0  0  0  0  0
    8.1054   -1.5849    0.7839 C   0  0  0  0  0  0  0  0  0  0  0  0
    5.7028    2.2721   -0.6591 C   0  0  0  0  0  0  0  0  0  0  0  0
    7.5587    2.6663    0.7750 C   0  0  0  0  0  0  0  0  0  0  0  0
    5.5837    3.6466   -0.8324 C   0  0  0  0  0  0  0  0  0  0  0  0
    6.4860    4.4643   -0.1715 C   0  0  0  0  0  0  0  0  0  0  0  0
   -7.1215    0.8225   -2.3623 H   0  0  0  0  0  0  0  0  0  0  0  0
   -7.1182   -0.8882   -2.1500 H   0  0  0  0  0  0  0  0  0  0  0  0
   -5.3562   -2.0934   -1.0399 H   0  0  0  0  0  0  0  0  0  0  0  0
   -7.8981    2.2745   -0.5926 H   0  0  0  0  0  0  0  0  0  0  0  0
   -7.7299   -1.9029   -0.0590 H   0  0  0  0  0  0  0  0  0  0  0  0
   -2.7725    2.1402   -0.8322 H   0  0  0  0  0  0  0  0  0  0  0  0
   -3.0147   -2.1594   -0.4264 H   0  0  0  0  0  0  0  0  0  0  0  0
   -9.3463    2.4774    1.4401 H   0  0  0  0  0  0  0  0  0  0  0  0
   -9.2123   -1.6897    1.9700 H   0  0  0  0  0  0  0  0  0  0  0  0
   -1.1197   -1.9633   -1.0562 H   0  0  0  0  0  0  0  0  0  0  0  0
  -10.8031   -0.3570    3.1678 H   0  0  0  0  0  0  0  0  0  0  0  0
  -10.8526    1.3934    2.9508 H   0  0  0  0  0  0  0  0  0  0  0  0
   -9.5394    0.6584    3.8956 H   0  0  0  0  0  0  0  0  0  0  0  0
    1.1904    0.3789    0.6323 H   0  0  0  0  0  0  0  0  0  0  0  0
    3.4392   -0.1753    1.0652 H   0  0  0  0  0  0  0  0  0  0  0  0
    4.8813   -3.4682    0.4400 H   0  0  0  0  0  0  0  0  0  0  0  0
    2.1460   -4.9243   -1.4202 H   0  0  0  0  0  0  0  0  0  0  0  0
    3.2375   -4.9837   -0.0325 H   0  0  0  0  0  0  0  0  0  0  0  0
    3.7851   -4.2906   -1.5877 H   0  0  0  0  0  0  0  0  0  0  0  0
    9.0183    0.3434    0.6537 H   0  0  0  0  0  0  0  0  0  0  0  0
    9.0317   -2.1143    0.9806 H   0  0  0  0  0  0  0  0  0  0  0  0
    5.0048    1.6225   -1.1811 H   0  0  0  0  0  0  0  0  0  0  0  0
    8.3542    2.3592    1.4469 H   0  0  0  0  0  0  0  0  0  0  0  0
    4.8103    4.0647   -1.4665 H   0  0  0  0  0  0  0  0  0  0  0  0
    6.4361    5.5433   -0.2742 H   0  0  0  0  0  0  0  0  0  0  0  0
  1 13  1  0  0  0  0
  2 22  2  0  0  0  0
  3 11  1  0  0  0  0
  3 16  1  0  0  0  0
  3 17  1  0  0  0  0
  4 20  1  0  0  0  0
  4 21  1  0  0  0  0
  4 25  1  0  0  0  0
  5 22  1  0  0  0  0
  5 23  1  0  0  0  0
  5 48  1  0  0  0  0
  6 23  2  0  0  0  0
  6 26  1  0  0  0  0
  7 24  1  0  0  0  0
  7 30  1  0  0  0  0
  7 54  1  0  0  0  0
  8 30  1  0  0  0  0
  8 31  2  0  0  0  0
  9 30  2  0  0  0  0
  9 34  1  0  0  0  0
 10 36  1  0  0  0  0
 10 38  2  0  0  0  0
 11 12  1  0  0  0  0
 11 39  1  0  0  0  0
 11 40  1  0  0  0  0
 12 13  2  0  0  0  0
 12 14  1  0  0  0  0
 13 18  1  0  0  0  0
 14 19  2  0  0  0  0
 14 41  1  0  0  0  0
 15 18  2  0  0  0  0
 15 19  1  0  0  0  0
 15 22  1  0  0  0  0
 16 20  2  0  0  0  0
 16 42  1  0  0  0  0
 17 21  2  0  0  0  0
 17 43  1  0  0  0  0
 18 44  1  0  0  0  0
 19 45  1  0  0  0  0
 20 46  1  0  0  0  0
 21 47  1  0  0  0  0
 23 27  1  0  0  0  0
 24 26  2  0  0  0  0
 24 28  1  0  0  0  0
 25 49  1  0  0  0  0
 25 50  1  0  0  0  0
 25 51  1  0  0  0  0
 26 29  1  0  0  0  0
 27 28  2  0  0  0  0
 27 52  1  0  0  0  0
 28 53  1  0  0  0  0
 29 55  1  0  0  0  0
 29 56  1  0  0  0  0
 29 57  1  0  0  0  0
 31 32  1  0  0  0  0
 31 33  1  0  0  0  0
 32 35  1  0  0  0  0
 32 36  2  0  0  0  0
 33 34  2  0  0  0  0
 33 58  1  0  0  0  0
 34 59  1  0  0  0  0
 35 37  2  0  0  0  0
 35 60  1  0  0  0  0
 36 61  1  0  0  0  0
 37 38  1  0  0  0  0
 37 62  1  0  0  0  0
 38 63  1  0  0  0  0
M  END
> <PUBCHEM_COMPOUND_CID>
11956488

> <PUBCHEM_CONFORMER_RMSD>
1

> <PUBCHEM_CONFORMER_DIVERSEORDER>
1
112
30
81
97
28
74
115
58
38
98
31
117
3
79
108
110
78
23
116
33
103
37
34
100
45
25
77
88
99
52
113
14
57
92
107
36
83
119
111
51
56
73
48
35
75
70
47
120
102
82
85
106
59
76
101
68
13
104
40
55
61
63
62
84
32
29
65
46
64
87
41
39
109
114
53
21
69
6
66
90
19
121
42
91
80
93
118
105
86
71
89
67
7
17
44
50
72
95
60
122
18
54
8
22
94
9
43
12
5
24
26
4
49
11
27
96
10
2
20
16
15

> <PUBCHEM_MMFF94_PARTIAL_CHARGES>
54
1 -0.18
10 -0.62
11 0.51
12 -0.14
13 0.18
14 -0.15
15 0.09
16 -0.05
17 -0.05
18 -0.15
19 -0.15
2 -0.57
20 -0.05
21 -0.05
22 0.54
23 0.43
24 0.1
25 0.37
26 0.17
27 -0.15
28 -0.15
29 0.14
3 -0.57
30 0.72
31 0.31
33 -0.15
34 0.16
35 -0.15
36 0.16
37 -0.15
38 0.16
4 -0.57
41 0.15
42 0.15
43 0.15
44 0.15
45 0.15
46 0.15
47 0.15
48 0.37
5 -0.55
52 0.15
53 0.15
54 0.4
58 0.15
59 0.15
6 -0.62
60 0.15
61 0.15
62 0.15
63 0.15
7 -0.6
8 -0.62
9 -0.62

> <PUBCHEM_EFFECTIVE_ROTOR_COUNT>
8.4

> <PUBCHEM_PHARMACOPHORE_FEATURES>
13
1 10 acceptor
1 2 acceptor
1 3 cation
1 4 cation
1 5 donor
1 7 donor
1 8 acceptor
4 7 8 9 30 cation
6 10 32 35 36 37 38 rings
6 12 13 14 15 18 19 rings
6 3 4 16 17 20 21 rings
6 6 23 24 26 27 28 rings
6 8 9 30 31 33 34 rings

> <PUBCHEM_HEAVY_ATOM_COUNT>
38

> <PUBCHEM_ATOM_DEF_STEREO_COUNT>
0

> <PUBCHEM_ATOM_UDEF_STEREO_COUNT>
0

> <PUBCHEM_BOND_DEF_STEREO_COUNT>
0

> <PUBCHEM_BOND_UDEF_STEREO_COUNT>
0

> <PUBCHEM_ISOTOPIC_ATOM_COUNT>
0

> <PUBCHEM_COMPONENT_COUNT>
1

> <PUBCHEM_CACTVS_TAUTO_COUNT>
12

> <PUBCHEM_CONFORMER_ID>
00B6710800000001

> <PUBCHEM_MMFF94_ENERGY>
140.1929

> <PUBCHEM_FEATURE_SELFOVERLAP>
65.976

> <PUBCHEM_SHAPE_FINGERPRINT>
10673678 19 18412541038136183886
11181472 205 15482397448011049251
11534866 41 16298382436454235858
11828042 163 18337677534181739564
11828042 53 17180255917108390236
11966995 178 18411707591242616020
12133447 93 15052014568020699645
12539765 74 17917997173960389135
12592606 108 8142087567425488781
12717326 120 15575295305885252369
12925494 130 18263073487807129690
13008946 62 18200885092433048550
131240 88 18338797918479934440
13947935 32 18340209592557374105
14919807 6 12823027391650287009
15419008 91 17822560613500672013
15461852 350 14490475266585484335
15840311 113 18408602570141909206
16728433 110 18335134290428429261
16991971 28 8502387658414322992
1754908 1 17240201024036932377
17686467 74 17821726118514056157
19302320 297 18408879643072643882
19315958 150 18343026549927003975
19611394 137 17968101962520432609
20501277 180 17703221953384255536
21781055 127 17131841945263999435
21792965 20 10953737880031283630
21792965 270 17968666024232690557
22149856 69 17774721952796756498
335507 130 18412538790992660054
3418910 222 18187093810654318485
3552219 110 18131638863823384929
3711267 37 18131074801404796889
4112364 45 18411136948527819470
4339292 15 16153432766930839019
437795 160 15574715807448777167
4625314 4 18411700993524742990
5109719 28 18409167718670121120
6204607 403 18130514123209942369
99344 41 18337099177420406652

> <PUBCHEM_SHAPE_MULTIPOLES>
738.17
36.06
4.5
1.49
38.94
1.84
-0.66
17.12
-17.07
-13.29
0.9
4.78
0.3
-0.04

> <PUBCHEM_SHAPE_SELFOVERLAP>
1609.829

> <PUBCHEM_SHAPE_VOLUME>
400.3

> <PUBCHEM_COORDINATE_TYPE>
2
5
10

$$$$
