5318759
  -OEChem-02172602393D

 51 54  0     1  0  0  0  0  0999 V2000
    1.6195   -1.8103    0.3820 O   0  0  0  0  0  0  0  0  0  0  0  0
    0.6093    0.0788    1.3056 O   0  0  0  0  0  0  0  0  0  0  0  0
    5.2959    0.0205    0.3175 O   0  0  0  0  0  0  0  0  0  0  0  0
    2.8384    1.6301    0.5248 O   0  0  0  0  0  0  0  0  0  0  0  0
    4.8071   -2.3177   -1.3385 O   0  0  0  0  0  0  0  0  0  0  0  0
    3.1898   -4.4755   -1.2787 O   0  0  0  0  0  0  0  0  0  0  0  0
   -2.4047    1.4049   -0.3511 O   0  0  0  0  0  0  0  0  0  0  0  0
    1.7079   -4.3613    0.4495 O   0  0  0  0  0  0  0  0  0  0  0  0
   -1.1701   -2.0561    1.4099 O   0  0  0  0  0  0  0  0  0  0  0  0
   -3.4983   -3.1417    0.9221 O   0  0  0  0  0  0  0  0  0  0  0  0
   -6.6859   -0.4126   -1.2997 O   0  0  0  0  0  0  0  0  0  0  0  0
    1.9531    5.9480   -0.3856 O   0  0  0  0  0  0  0  0  0  0  0  0
    4.0183   -0.3431   -0.2077 C   0  0  2  0  0  0  0  0  0  0  0  0
    2.9177    0.2150    0.6950 C   0  0  2  0  0  0  0  0  0  0  0  0
    3.9558   -1.8689   -0.2854 C   0  0  1  0  0  0  0  0  0  0  0  0
    1.5565   -0.3868    0.3451 C   0  0  1  0  0  0  0  0  0  0  0  0
    2.5346   -2.3371   -0.5720 C   0  0  1  0  0  0  0  0  0  0  0  0
    2.4106   -3.8150   -0.3877 C   0  0  0  0  0  0  0  0  0  0  0  0
   -0.6570    0.1650    0.7687 C   0  0  0  0  0  0  0  0  0  0  0  0
   -1.1269    1.2741    0.1692 C   0  0  0  0  0  0  0  0  0  0  0  0
   -1.5425   -1.0193    0.8769 C   0  0  0  0  0  0  0  0  0  0  0  0
   -2.8928   -0.8789    0.3107 C   0  0  0  0  0  0  0  0  0  0  0  0
   -3.2545    0.3318   -0.2760 C   0  0  0  0  0  0  0  0  0  0  0  0
   -0.3192    2.4984    0.0242 C   0  0  0  0  0  0  0  0  0  0  0  0
   -3.8018   -1.9387    0.3598 C   0  0  0  0  0  0  0  0  0  0  0  0
   -4.5302    0.4909   -0.8180 C   0  0  0  0  0  0  0  0  0  0  0  0
    0.4772    2.6791   -1.1069 C   0  0  0  0  0  0  0  0  0  0  0  0
   -0.3516    3.4775    1.0175 C   0  0  0  0  0  0  0  0  0  0  0  0
   -5.0769   -1.7774   -0.1835 C   0  0  0  0  0  0  0  0  0  0  0  0
   -5.4407   -0.5650   -0.7712 C   0  0  0  0  0  0  0  0  0  0  0  0
    1.2409    3.8382   -1.2446 C   0  0  0  0  0  0  0  0  0  0  0  0
    0.4120    4.6365    0.8797 C   0  0  0  0  0  0  0  0  0  0  0  0
    1.2084    4.8169   -0.2513 C   0  0  0  0  0  0  0  0  0  0  0  0
    3.9580    0.0975   -1.2108 H   0  0  0  0  0  0  0  0  0  0  0  0
    3.1555    0.0292    1.7498 H   0  0  0  0  0  0  0  0  0  0  0  0
    4.3355   -2.3051    0.6467 H   0  0  0  0  0  0  0  0  0  0  0  0
    1.2701   -0.0712   -0.6677 H   0  0  0  0  0  0  0  0  0  0  0  0
    2.1950   -2.0906   -1.5857 H   0  0  0  0  0  0  0  0  0  0  0  0
    5.3636    0.9895    0.2846 H   0  0  0  0  0  0  0  0  0  0  0  0
    3.6753    2.0130    0.8371 H   0  0  0  0  0  0  0  0  0  0  0  0
    4.4787   -1.9415   -2.1730 H   0  0  0  0  0  0  0  0  0  0  0  0
    3.1236   -5.4485   -1.1728 H   0  0  0  0  0  0  0  0  0  0  0  0
   -4.8093    1.4372   -1.2748 H   0  0  0  0  0  0  0  0  0  0  0  0
    0.5087    1.9295   -1.8937 H   0  0  0  0  0  0  0  0  0  0  0  0
   -0.9676    3.3511    1.9045 H   0  0  0  0  0  0  0  0  0  0  0  0
   -5.7905   -2.5973   -0.1496 H   0  0  0  0  0  0  0  0  0  0  0  0
    1.8564    3.9669   -2.1308 H   0  0  0  0  0  0  0  0  0  0  0  0
    0.3826    5.3953    1.6568 H   0  0  0  0  0  0  0  0  0  0  0  0
   -2.5894   -3.1405    1.2588 H   0  0  0  0  0  0  0  0  0  0  0  0
   -6.7664    0.4859   -1.6636 H   0  0  0  0  0  0  0  0  0  0  0  0
    2.4416    5.9056   -1.2256 H   0  0  0  0  0  0  0  0  0  0  0  0
  1 16  1  0  0  0  0
  1 17  1  0  0  0  0
  2 16  1  0  0  0  0
  2 19  1  0  0  0  0
  3 13  1  0  0  0  0
  3 39  1  0  0  0  0
  4 14  1  0  0  0  0
  4 40  1  0  0  0  0
  5 15  1  0  0  0  0
  5 41  1  0  0  0  0
  6 18  1  0  0  0  0
  6 42  1  0  0  0  0
  7 20  1  0  0  0  0
  7 23  1  0  0  0  0
  8 18  2  0  0  0  0
  9 21  2  0  0  0  0
 10 25  1  0  0  0  0
 10 49  1  0  0  0  0
 11 30  1  0  0  0  0
 11 50  1  0  0  0  0
 12 33  1  0  0  0  0
 12 51  1  0  0  0  0
 13 14  1  0  0  0  0
 13 15  1  0  0  0  0
 13 34  1  0  0  0  0
 14 16  1  0  0  0  0
 14 35  1  0  0  0  0
 15 17  1  0  0  0  0
 15 36  1  0  0  0  0
 16 37  1  0  0  0  0
 17 18  1  0  0  0  0
 17 38  1  0  0  0  0
 19 20  2  0  0  0  0
 19 21  1  0  0  0  0
 20 24  1  0  0  0  0
 21 22  1  0  0  0  0
 22 23  1  0  0  0  0
 22 25  2  0  0  0  0
 23 26  2  0  0  0  0
 24 27  2  0  0  0  0
 24 28  1  0  0  0  0
 25 29  1  0  0  0  0
 26 30  1  0  0  0  0
 26 43  1  0  0  0  0
 27 31  1  0  0  0  0
 27 44  1  0  0  0  0
 28 32  2  0  0  0  0
 28 45  1  0  0  0  0
 29 30  2  0  0  0  0
 29 46  1  0  0  0  0
 31 33  2  0  0  0  0
 31 47  1  0  0  0  0
 32 33  1  0  0  0  0
 32 48  1  0  0  0  0
M  END
> <PUBCHEM_COMPOUND_CID>
5318759

> <PUBCHEM_CONFORMER_RMSD>
0.8

> <PUBCHEM_CONFORMER_DIVERSEORDER>
1
29
34
27
38
39
33
37
9
18
2
31
4
32
17
30
41
7
5
21
15
20
26
22
40
13
3
35
12
23
28
10
11
24
16
25
36
19
42
8
14
6

> <PUBCHEM_MMFF94_PARTIAL_CHARGES>
46
1 -0.56
10 -0.53
11 -0.53
12 -0.53
13 0.28
14 0.28
15 0.28
16 0.56
17 0.34
18 0.66
19 0.09
2 -0.36
20 0.05
21 0.47
22 0.09
23 0.08
24 0.03
25 0.08
26 -0.15
27 -0.15
28 -0.15
29 -0.15
3 -0.68
30 0.08
31 -0.15
32 -0.15
33 0.08
39 0.4
4 -0.68
40 0.4
41 0.4
42 0.5
43 0.15
44 0.15
45 0.15
46 0.15
47 0.15
48 0.15
49 0.45
5 -0.68
50 0.45
51 0.45
6 -0.65
7 -0.16
8 -0.57
9 -0.57

> <PUBCHEM_EFFECTIVE_ROTOR_COUNT>
5.2

> <PUBCHEM_PHARMACOPHORE_FEATURES>
20
1 1 acceptor
1 10 donor
1 11 donor
1 12 donor
1 2 acceptor
1 3 acceptor
1 3 donor
1 4 acceptor
1 4 donor
1 5 acceptor
1 5 donor
1 6 acceptor
1 7 acceptor
1 8 acceptor
1 9 acceptor
3 6 8 18 anion
6 1 13 14 15 16 17 rings
6 22 23 25 26 29 30 rings
6 24 27 28 31 32 33 rings
6 7 19 20 21 22 23 rings

> <PUBCHEM_HEAVY_ATOM_COUNT>
33

> <PUBCHEM_ATOM_DEF_STEREO_COUNT>
5

> <PUBCHEM_ATOM_UDEF_STEREO_COUNT>
0

> <PUBCHEM_BOND_DEF_STEREO_COUNT>
0

> <PUBCHEM_BOND_UDEF_STEREO_COUNT>
0

> <PUBCHEM_ISOTOPIC_ATOM_COUNT>
0

> <PUBCHEM_COMPONENT_COUNT>
1

> <PUBCHEM_CACTVS_TAUTO_COUNT>
57

> <PUBCHEM_CONFORMER_ID>
0051286700000001

> <PUBCHEM_MMFF94_ENERGY>
100.4328

> <PUBCHEM_FEATURE_SELFOVERLAP>
101.673

> <PUBCHEM_SHAPE_FINGERPRINT>
10556698 54 17393556418013144493
10675989 125 17901093128108529907
1100329 8 17835525199817024608
12160290 23 17464256019863003008
12788726 201 18045219336632409962
1361 2 18340480179121186126
13690498 29 17765737736218108222
13692114 37 17334194123687641425
138480 1 18410576210060957768
13911987 19 18263662795589939556
140371 6 18411142450106897897
14068700 686 18200025141491240840
14659021 117 17976819788158933338
14866123 147 17620758280552051643
15081414 286 18410581677923526067
15230672 131 17542222811208926452
15420108 30 17473526423678442080
15439362 3 18120931973767909949
15475509 8 18268711615714602909
15664445 248 18409444795589855896
18393751 57 18056167368059319784
18681886 176 18266734861095081498
19311894 1 17186439041218489066
21120745 212 18126584339876786228
21133410 171 17468148364346475907
22440779 20 16748817070923741202
23559900 14 18337383950435693153
24771750 20 18044948019601780493
24893989 43 16609896053387657029
25019877 29 17703508917802975204
3298306 158 17833555965231999180
38695281 34 17906732857827691112
4017518 198 17836653294758695820
4280585 95 18335412448577414290
4353968 344 18196100950481046358
46194498 28 18190734439887948199
463206 1 18411419544201700855
5265222 85 16963802784465369980
5309563 4 18413108350979844862
57527585 103 17533533112207830826
6004065 56 18339915038623829835
613672 6 18410570669453075146
6443956 14 18410855503157410784
6669772 16 17765728201327329476
7399639 24 18128517311772720226

> <PUBCHEM_SHAPE_MULTIPOLES>
608.69
9.85
7.09
1.14
9.78
6.13
0.06
-8.15
3.27
-7.51
0.84
0.08
0.02
1.11

> <PUBCHEM_SHAPE_SELFOVERLAP>
1347.02

> <PUBCHEM_SHAPE_VOLUME>
321.2

> <PUBCHEM_COORDINATE_TYPE>
2
5
10

$$$$
