13915428
  -OEChem-02172602363D

 31 34  0     0  0  0  0  0  0999 V2000
   -1.0173    2.1264    0.1290 O   0  0  0  0  0  0  0  0  0  0  0  0
    1.4397   -2.2710   -0.0498 O   0  0  0  0  0  0  0  0  0  0  0  0
   -3.7069    1.5090    0.1980 O   0  0  0  0  0  0  0  0  0  0  0  0
    4.1295   -1.6534   -0.1192 O   0  0  0  0  0  0  0  0  0  0  0  0
   -4.5407   -1.1382    0.1623 O   0  0  0  0  0  0  0  0  0  0  0  0
    4.9632    0.9935   -0.0837 O   0  0  0  0  0  0  0  0  0  0  0  0
   -0.2309   -3.8407   -0.0317 O   0  0  0  0  0  0  0  0  0  0  0  0
    0.6535    3.6960    0.1143 O   0  0  0  0  0  0  0  0  0  0  0  0
   -0.4853   -0.2406    0.0574 C   0  0  0  0  0  0  0  0  0  0  0  0
    0.9078    0.0958    0.0220 C   0  0  0  0  0  0  0  0  0  0  0  0
   -0.9064   -1.5692    0.0395 C   0  0  0  0  0  0  0  0  0  0  0  0
   -1.4328    0.7753    0.1105 C   0  0  0  0  0  0  0  0  0  0  0  0
    1.3289    1.4245    0.0397 C   0  0  0  0  0  0  0  0  0  0  0  0
    1.8554   -0.9200   -0.0312 C   0  0  0  0  0  0  0  0  0  0  0  0
   -2.7959    0.4998    0.1461 C   0  0  0  0  0  0  0  0  0  0  0  0
   -2.2735   -1.8672    0.0748 C   0  0  0  0  0  0  0  0  0  0  0  0
    3.2184   -0.6444   -0.0675 C   0  0  0  0  0  0  0  0  0  0  0  0
    2.6960    1.7226    0.0040 C   0  0  0  0  0  0  0  0  0  0  0  0
    0.0966   -2.6614   -0.0169 C   0  0  0  0  0  0  0  0  0  0  0  0
    0.3258    2.5168    0.0963 C   0  0  0  0  0  0  0  0  0  0  0  0
   -3.2130   -0.8310    0.1279 C   0  0  0  0  0  0  0  0  0  0  0  0
    3.6354    0.6864   -0.0496 C   0  0  0  0  0  0  0  0  0  0  0  0
   -4.6475    1.5911   -0.8721 C   0  0  0  0  0  0  0  0  0  0  0  0
   -2.6121   -2.9003    0.0611 H   0  0  0  0  0  0  0  0  0  0  0  0
    3.0421    2.7531    0.0171 H   0  0  0  0  0  0  0  0  0  0  0  0
    4.9864   -1.3385    0.2108 H   0  0  0  0  0  0  0  0  0  0  0  0
   -4.6437   -2.1051    0.1413 H   0  0  0  0  0  0  0  0  0  0  0  0
    5.4601    0.2530   -0.4673 H   0  0  0  0  0  0  0  0  0  0  0  0
   -4.2464    1.1818   -1.8059 H   0  0  0  0  0  0  0  0  0  0  0  0
   -4.8808    2.6474   -1.0346 H   0  0  0  0  0  0  0  0  0  0  0  0
   -5.5734    1.0782   -0.5974 H   0  0  0  0  0  0  0  0  0  0  0  0
  1 12  1  0  0  0  0
  1 20  1  0  0  0  0
  2 14  1  0  0  0  0
  2 19  1  0  0  0  0
  3 15  1  0  0  0  0
  3 23  1  0  0  0  0
  4 17  1  0  0  0  0
  4 26  1  0  0  0  0
  5 21  1  0  0  0  0
  5 27  1  0  0  0  0
  6 22  1  0  0  0  0
  6 28  1  0  0  0  0
  7 19  2  0  0  0  0
  8 20  2  0  0  0  0
  9 10  1  0  0  0  0
  9 11  1  0  0  0  0
  9 12  2  0  0  0  0
 10 13  1  0  0  0  0
 10 14  2  0  0  0  0
 11 16  2  0  0  0  0
 11 19  1  0  0  0  0
 12 15  1  0  0  0  0
 13 18  2  0  0  0  0
 13 20  1  0  0  0  0
 14 17  1  0  0  0  0
 15 21  2  0  0  0  0
 16 21  1  0  0  0  0
 16 24  1  0  0  0  0
 17 22  2  0  0  0  0
 18 22  1  0  0  0  0
 18 25  1  0  0  0  0
 23 29  1  0  0  0  0
 23 30  1  0  0  0  0
 23 31  1  0  0  0  0
M  END
> <PUBCHEM_COMPOUND_CID>
13915428

> <PUBCHEM_CONFORMER_RMSD>
0.6

> <PUBCHEM_CONFORMER_DIVERSEORDER>
1

> <PUBCHEM_MMFF94_PARTIAL_CHARGES>
26
1 -0.23
11 0.09
12 0.08
13 0.09
14 0.08
15 0.08
16 -0.15
17 0.08
18 -0.15
19 0.63
2 -0.23
20 0.63
21 0.08
22 0.08
23 0.28
24 0.15
25 0.15
26 0.45
27 0.45
28 0.45
3 -0.36
4 -0.53
5 -0.53
6 -0.53
7 -0.57
8 -0.57

> <PUBCHEM_EFFECTIVE_ROTOR_COUNT>
1

> <PUBCHEM_PHARMACOPHORE_FEATURES>
10
1 3 acceptor
1 4 donor
1 5 donor
1 6 donor
1 7 acceptor
1 8 acceptor
6 1 9 10 12 13 20 rings
6 10 13 14 17 18 22 rings
6 2 9 10 11 14 19 rings
6 9 11 12 15 16 21 rings

> <PUBCHEM_HEAVY_ATOM_COUNT>
23

> <PUBCHEM_ATOM_DEF_STEREO_COUNT>
0

> <PUBCHEM_ATOM_UDEF_STEREO_COUNT>
0

> <PUBCHEM_BOND_DEF_STEREO_COUNT>
0

> <PUBCHEM_BOND_UDEF_STEREO_COUNT>
0

> <PUBCHEM_ISOTOPIC_ATOM_COUNT>
0

> <PUBCHEM_COMPONENT_COUNT>
1

> <PUBCHEM_CACTVS_TAUTO_COUNT>
69

> <PUBCHEM_CONFORMER_ID>
00D4552400000001

> <PUBCHEM_MMFF94_ENERGY>
97.651

> <PUBCHEM_FEATURE_SELFOVERLAP>
50.881

> <PUBCHEM_SHAPE_FINGERPRINT>
10411042 1 17041480515240329131
10498660 4 18410296873988139940
10693767 8 17986656109301426439
10967382 1 18339081591856784394
1100329 8 18409725132542969666
12403259 226 18337388365772901493
12553582 1 18122631556750680107
12838862 33 18267285677128055384
13132413 78 18413109471918855789
13140716 1 18338798914125622978
13583140 156 16950830514055929595
138480 1 17834114139187094451
14178342 30 17691111644583892592
14790565 3 18410866442534481472
15196674 1 18410575076152363050
16945 1 18050571741956223171
193761 8 17690844883632244658
19591789 44 18410856546829046026
20028762 73 18058170720858170975
20510252 161 18343586213855306704
20739085 24 18120684390151175089
20905425 154 17909833137126033582
21267235 1 18338808904293613986
21421861 104 17756148886362811499
221490 88 18192156112189713003
2334 1 18410858797344163586
23366157 5 17610332015540015104
23402539 116 18343012303155642030
23559900 14 18342458119689349078
238 59 17611701740744942893
2748010 2 18411141354626252519
335352 9 18266459815014512838
34934 24 18410005511901878641
350125 39 18337678641269606937
5104073 3 18410012126130299482
7364860 26 18125442161811581680
7832392 63 18196370549128825434
9709674 26 18269280243082325582

> <PUBCHEM_SHAPE_MULTIPOLES>
426.37
7.43
3.61
0.63
0.67
0.5
-0.03
-1.39
-0.7
0.01
0
0.18
-0.06
0.36

> <PUBCHEM_SHAPE_SELFOVERLAP>
979.537

> <PUBCHEM_SHAPE_VOLUME>
218.9

> <PUBCHEM_COORDINATE_TYPE>
2
5
10

$$$$
