102142520
  -OEChem-02172602503D

 34 33  0     0  0  0  0  0  0999 V2000
   -1.2373    1.1291    0.0095 N   0  0  0  0  0  0  0  0  0  0  0  0
    1.0592   -1.3210   -0.0128 N   0  0  0  0  0  0  0  0  0  0  0  0
    2.1093    0.9690   -0.0375 N   0  0  0  0  0  0  0  0  0  0  0  0
   -2.3515    0.1786    0.0149 C   0  0  0  0  0  0  0  0  0  0  0  0
   -3.6520    0.9812    0.0366 C   0  0  0  0  0  0  0  0  0  0  0  0
   -2.2362   -0.6928    1.2651 C   0  0  0  0  0  0  0  0  0  0  0  0
   -2.2657   -0.6728   -1.2514 C   0  0  0  0  0  0  0  0  0  0  0  0
    1.0176    0.0840   -0.0172 C   0  0  0  0  0  0  0  0  0  0  0  0
   -0.1735    0.6308   -0.0031 C   0  0  0  0  0  0  0  0  0  0  0  0
    1.2150   -2.0942    1.2176 C   0  0  0  0  0  0  0  0  0  0  0  0
    1.0662   -2.1248   -1.2386 C   0  0  0  0  0  0  0  0  0  0  0  0
    1.9566    2.4269   -0.0431 C   0  0  0  0  0  0  0  0  0  0  0  0
    3.4923    0.5061    0.0600 C   0  0  0  0  0  0  0  0  0  0  0  0
   -3.7265    1.6346   -0.8403 H   0  0  0  0  0  0  0  0  0  0  0  0
   -3.7047    1.6225    0.9240 H   0  0  0  0  0  0  0  0  0  0  0  0
   -4.5280    0.3235    0.0430 H   0  0  0  0  0  0  0  0  0  0  0  0
   -1.4121   -1.4062    1.2218 H   0  0  0  0  0  0  0  0  0  0  0  0
   -2.1081   -0.0845    2.1683 H   0  0  0  0  0  0  0  0  0  0  0  0
   -3.1470   -1.2889    1.3991 H   0  0  0  0  0  0  0  0  0  0  0  0
   -2.1320   -0.0532   -2.1459 H   0  0  0  0  0  0  0  0  0  0  0  0
   -1.4600   -1.4051   -1.2242 H   0  0  0  0  0  0  0  0  0  0  0  0
   -3.1902   -1.2470   -1.3872 H   0  0  0  0  0  0  0  0  0  0  0  0
    0.5310   -2.9491    1.2313 H   0  0  0  0  0  0  0  0  0  0  0  0
    1.0058   -1.4818    2.1015 H   0  0  0  0  0  0  0  0  0  0  0  0
    2.2412   -2.4672    1.2976 H   0  0  0  0  0  0  0  0  0  0  0  0
    0.8103   -1.5180   -2.1138 H   0  0  0  0  0  0  0  0  0  0  0  0
    2.0635   -2.5468   -1.4007 H   0  0  0  0  0  0  0  0  0  0  0  0
    0.3472   -2.9475   -1.1695 H   0  0  0  0  0  0  0  0  0  0  0  0
    1.3845    2.7523   -0.9187 H   0  0  0  0  0  0  0  0  0  0  0  0
    1.4466    2.7634    0.8662 H   0  0  0  0  0  0  0  0  0  0  0  0
    2.9247    2.9387   -0.0804 H   0  0  0  0  0  0  0  0  0  0  0  0
    3.5993   -0.5354   -0.2600 H   0  0  0  0  0  0  0  0  0  0  0  0
    3.8404    0.5856    1.0948 H   0  0  0  0  0  0  0  0  0  0  0  0
    4.1523    1.1029   -0.5789 H   0  0  0  0  0  0  0  0  0  0  0  0
  1  4  1  0  0  0  0
  1  9  2  0  0  0  0
  2  8  1  0  0  0  0
  2 10  1  0  0  0  0
  2 11  1  0  0  0  0
  3  8  1  0  0  0  0
  3 12  1  0  0  0  0
  3 13  1  0  0  0  0
  4  5  1  0  0  0  0
  4  6  1  0  0  0  0
  4  7  1  0  0  0  0
  5 14  1  0  0  0  0
  5 15  1  0  0  0  0
  5 16  1  0  0  0  0
  6 17  1  0  0  0  0
  6 18  1  0  0  0  0
  6 19  1  0  0  0  0
  7 20  1  0  0  0  0
  7 21  1  0  0  0  0
  7 22  1  0  0  0  0
  8  9  2  0  0  0  0
 10 23  1  0  0  0  0
 10 24  1  0  0  0  0
 10 25  1  0  0  0  0
 11 26  1  0  0  0  0
 11 27  1  0  0  0  0
 11 28  1  0  0  0  0
 12 29  1  0  0  0  0
 12 30  1  0  0  0  0
 12 31  1  0  0  0  0
 13 32  1  0  0  0  0
 13 33  1  0  0  0  0
 13 34  1  0  0  0  0
M  END
> <PUBCHEM_COMPOUND_CID>
102142520

> <PUBCHEM_CONFORMER_RMSD>
0.6

> <PUBCHEM_CONFORMER_DIVERSEORDER>
1
15
12
5
11
4
14
3
9
6
8
7
16
10
2
13

> <PUBCHEM_MMFF94_PARTIAL_CHARGES>
10
1 -0.55
10 0.37
11 0.37
12 0.37
13 0.37
2 -0.84
3 -0.84
4 0.25
8 0.26
9 0.24

> <PUBCHEM_EFFECTIVE_ROTOR_COUNT>
3

> <PUBCHEM_PHARMACOPHORE_FEATURES>
4
1 1 acceptor
1 2 cation
1 3 cation
4 4 5 6 7 hydrophobe

> <PUBCHEM_HEAVY_ATOM_COUNT>
13

> <PUBCHEM_ATOM_DEF_STEREO_COUNT>
0

> <PUBCHEM_ATOM_UDEF_STEREO_COUNT>
0

> <PUBCHEM_BOND_DEF_STEREO_COUNT>
0

> <PUBCHEM_BOND_UDEF_STEREO_COUNT>
0

> <PUBCHEM_ISOTOPIC_ATOM_COUNT>
0

> <PUBCHEM_COMPONENT_COUNT>
1

> <PUBCHEM_CACTVS_TAUTO_COUNT>
1

> <PUBCHEM_CONFORMER_ID>
0616923800000001

> <PUBCHEM_MMFF94_ENERGY>
49.499

> <PUBCHEM_FEATURE_SELFOVERLAP>
20.315

> <PUBCHEM_SHAPE_FINGERPRINT>
1 1 18410291436775892460
12326174 3 18337954480774588450
12346645 6 18271807878458874829
12423570 1 17912624835908910407
12524768 44 18338802195818188525
13380535 76 18409446990281266139
14325111 11 18338517568135457600
14817 1 17322419415011505006
15279307 12 17989486325213785535
15775835 57 18272650177116561453
15852999 172 16950827189909796987
16945 1 18261381269758894056
17990270 104 18197782102630397015
18175812 5 17895474837948245076
18186145 218 17845384399954936184
20201158 50 18261111859419164481
20645464 45 17966972716649391337
20645477 70 18339919308617757999
20711985 344 17186732614864514262
21524375 3 18266735968790734332
23552423 10 18410852136213819461
23557571 272 16443058401124383423
2748010 2 18120380010203155484
528862 383 18411695448399463519
7364860 26 18200595782997898758
81228 2 17256801720859522648
81539 233 18333450928555109446

> <PUBCHEM_SHAPE_MULTIPOLES>
252.59
5
2.26
1.1
1.45
0.27
0
-1.77
0.1
-1.54
-0.04
0.3
0.69
-0.05

> <PUBCHEM_SHAPE_SELFOVERLAP>
479.451

> <PUBCHEM_SHAPE_VOLUME>
157.6

> <PUBCHEM_COORDINATE_TYPE>
2
5
10

$$$$
