5373305
  -OEChem-02172602423D

 39 41  0     0  0  0  0  0  0999 V2000
    1.0931    3.3707   -0.4155 S   0  0  0  0  0  0  0  0  0  0  0  0
    5.4822   -1.8616    1.8924 F   0  0  0  0  0  0  0  0  0  0  0  0
    1.0369   -0.3528    0.4378 O   0  0  0  0  0  0  0  0  0  0  0  0
   -1.4167    3.6075    0.3290 O   0  0  0  0  0  0  0  0  0  0  0  0
   -0.4059    1.4963    0.4987 N   0  0  0  0  0  0  0  0  0  0  0  0
   -2.3599    0.3237   -0.0734 N   0  0  0  0  0  0  0  0  0  0  0  0
   -1.5684    0.8067    1.0304 C   0  0  0  0  0  0  0  0  0  0  0  0
   -3.5231   -0.4137    0.0796 C   0  0  0  0  0  0  0  0  0  0  0  0
    0.7915    0.8318    0.2561 C   0  0  0  0  0  0  0  0  0  0  0  0
   -4.2646   -0.8651   -1.0297 C   0  0  0  0  0  0  0  0  0  0  0  0
    1.7775    1.8005   -0.2809 C   0  0  0  0  0  0  0  0  0  0  0  0
   -0.4681    2.8471    0.2039 C   0  0  0  0  0  0  0  0  0  0  0  0
   -3.9951   -0.7320    1.3674 C   0  0  0  0  0  0  0  0  0  0  0  0
    3.0271    1.4695   -0.6102 C   0  0  0  0  0  0  0  0  0  0  0  0
   -5.4334   -1.6063   -0.8572 C   0  0  0  0  0  0  0  0  0  0  0  0
    3.6230    0.1251   -0.4996 C   0  0  0  0  0  0  0  0  0  0  0  0
   -3.8063   -0.5530   -2.4172 C   0  0  0  0  0  0  0  0  0  0  0  0
   -5.1639   -1.4735    1.5400 C   0  0  0  0  0  0  0  0  0  0  0  0
   -5.8831   -1.9106    0.4277 C   0  0  0  0  0  0  0  0  0  0  0  0
    4.2796   -0.2306    0.6665 C   0  0  0  0  0  0  0  0  0  0  0  0
    3.5138   -0.7535   -1.5645 C   0  0  0  0  0  0  0  0  0  0  0  0
    4.8436   -1.5020    0.7710 C   0  0  0  0  0  0  0  0  0  0  0  0
    4.0777   -2.0250   -1.4601 C   0  0  0  0  0  0  0  0  0  0  0  0
    4.7426   -2.3993   -0.2922 C   0  0  0  0  0  0  0  0  0  0  0  0
   -1.2214   -0.0256    1.6528 H   0  0  0  0  0  0  0  0  0  0  0  0
   -2.1457    1.5081    1.6431 H   0  0  0  0  0  0  0  0  0  0  0  0
   -2.0373    0.5437   -1.0076 H   0  0  0  0  0  0  0  0  0  0  0  0
   -3.4699   -0.4122    2.2635 H   0  0  0  0  0  0  0  0  0  0  0  0
    3.7086    2.2235   -0.9995 H   0  0  0  0  0  0  0  0  0  0  0  0
   -6.0062   -1.9548   -1.7125 H   0  0  0  0  0  0  0  0  0  0  0  0
   -4.4826   -0.9694   -3.1719 H   0  0  0  0  0  0  0  0  0  0  0  0
   -3.7720    0.5299   -2.5768 H   0  0  0  0  0  0  0  0  0  0  0  0
   -2.8153   -0.9811   -2.6006 H   0  0  0  0  0  0  0  0  0  0  0  0
   -5.5148   -1.7104    2.5402 H   0  0  0  0  0  0  0  0  0  0  0  0
   -6.7932   -2.4877    0.5623 H   0  0  0  0  0  0  0  0  0  0  0  0
    4.3648    0.4596    1.5015 H   0  0  0  0  0  0  0  0  0  0  0  0
    2.9983   -0.4733   -2.4792 H   0  0  0  0  0  0  0  0  0  0  0  0
    3.9991   -2.7237   -2.2878 H   0  0  0  0  0  0  0  0  0  0  0  0
    5.1816   -3.3892   -0.2105 H   0  0  0  0  0  0  0  0  0  0  0  0
  1 11  1  0  0  0  0
  1 12  1  0  0  0  0
  2 22  1  0  0  0  0
  3  9  2  0  0  0  0
  4 12  2  0  0  0  0
  5  7  1  0  0  0  0
  5  9  1  0  0  0  0
  5 12  1  0  0  0  0
  6  7  1  0  0  0  0
  6  8  1  0  0  0  0
  6 27  1  0  0  0  0
  7 25  1  0  0  0  0
  7 26  1  0  0  0  0
  8 10  1  0  0  0  0
  8 13  2  0  0  0  0
  9 11  1  0  0  0  0
 10 15  2  0  0  0  0
 10 17  1  0  0  0  0
 11 14  2  0  0  0  0
 13 18  1  0  0  0  0
 13 28  1  0  0  0  0
 14 16  1  0  0  0  0
 14 29  1  0  0  0  0
 15 19  1  0  0  0  0
 15 30  1  0  0  0  0
 16 20  2  0  0  0  0
 16 21  1  0  0  0  0
 17 31  1  0  0  0  0
 17 32  1  0  0  0  0
 17 33  1  0  0  0  0
 18 19  2  0  0  0  0
 18 34  1  0  0  0  0
 19 35  1  0  0  0  0
 20 22  1  0  0  0  0
 20 36  1  0  0  0  0
 21 23  2  0  0  0  0
 21 37  1  0  0  0  0
 22 24  2  0  0  0  0
 23 24  1  0  0  0  0
 23 38  1  0  0  0  0
 24 39  1  0  0  0  0
M  END
> <PUBCHEM_COMPOUND_CID>
5373305

> <PUBCHEM_CONFORMER_RMSD>
0.8

> <PUBCHEM_CONFORMER_DIVERSEORDER>
2
27
17
33
44
41
35
31
39
12
48
16
28
19
24
45
32
40
47
11
30
7
36
18
38
37
15
8
25
6
46
20
22
10
29
34
23
9
26
5
43
21
42
4
1
3
13
14

> <PUBCHEM_MMFF94_PARTIAL_CHARGES>
34
1 -0.24
10 -0.14
11 0.12
12 0.77
13 -0.15
14 -0.18
15 -0.15
16 0.03
17 0.14
18 -0.15
19 -0.15
2 -0.19
20 -0.15
21 -0.15
22 0.19
23 -0.15
24 -0.15
27 0.4
28 0.15
29 0.15
3 -0.57
30 0.15
34 0.15
35 0.15
36 0.15
37 0.15
38 0.15
39 0.15
4 -0.57
5 -0.42
6 -0.87
7 0.67
8 0.1
9 0.62

> <PUBCHEM_EFFECTIVE_ROTOR_COUNT>
4.4

> <PUBCHEM_PHARMACOPHORE_FEATURES>
6
1 3 acceptor
1 6 cation
1 6 donor
5 1 5 9 11 12 rings
6 16 20 21 22 23 24 rings
6 8 10 13 15 18 19 rings

> <PUBCHEM_HEAVY_ATOM_COUNT>
24

> <PUBCHEM_ATOM_DEF_STEREO_COUNT>
0

> <PUBCHEM_ATOM_UDEF_STEREO_COUNT>
0

> <PUBCHEM_BOND_DEF_STEREO_COUNT>
1

> <PUBCHEM_BOND_UDEF_STEREO_COUNT>
0

> <PUBCHEM_ISOTOPIC_ATOM_COUNT>
0

> <PUBCHEM_COMPONENT_COUNT>
1

> <PUBCHEM_CACTVS_TAUTO_COUNT>
1

> <PUBCHEM_CONFORMER_ID>
0051FD7900000002

> <PUBCHEM_MMFF94_ENERGY>
62.5581

> <PUBCHEM_FEATURE_SELFOVERLAP>
30.446

> <PUBCHEM_SHAPE_FINGERPRINT>
10447042 23 18333446552294787886
10670039 82 13335007279531031342
11089746 13 11819272295529433822
11135926 11 18194683902428925492
11991303 11 17899706665621766661
12107183 9 18199770110760521849
12166972 35 17749112184013151710
12363563 72 18337119994493536556
12422481 6 17489039153929204783
12553582 1 18343590654682419478
12596602 18 14620793812203995999
12623949 98 17322139035821394811
12655364 74 13103577876535532818
13540713 5 18263664900040369052
13544653 18 18411984663012866541
13583140 156 15266498401147054416
13692114 37 17627522532111654809
13782708 43 17895759633810824091
13955234 65 17981330298204177529
1420 369 18272093785699598382
14251740 57 17917159337995093014
14528608 73 11025791029083741371
14848178 5 18342172250196547894
14848178 96 8214141837327599846
14910302 57 17385998533507100483
15183329 4 14490464254099388082
15537594 2 17988091087485635959
17349148 13 18201167610522477675
17492 89 18339647716302876894
1813 80 18272661159627577389
18222031 100 18343026600822240772
19377110 9 17632857559791248328
193927 3 18410018727542628723
1979834 28 17346049917068074023
20567600 234 11671783767467695075
20567600 9 10737551805199251086
20645477 70 18263086663738411968
21033650 10 15936400105397158661
21315764 119 16588295052142640647
21478907 32 18411423882144764073
22061861 79 17968093153226243951
2303208 19 17458915958891987003
23536364 44 18114170896722389213
23559900 14 17386281116827693935
3004659 81 18260554428604408502
312425 54 16343710914962531911
314194 84 18270123542593356145
345986 75 17917443050491600409
34797466 226 16516250785593421527
351380 3 18131080354190374895
4017518 198 15446603658965397850
44062 13 18262519182895388461
46194498 28 17314513827813179413
463206 1 18336828692621798475
5104073 3 18343023272233675920
5281201 14 17822290253546128797
613672 6 18411693266725057766
7064713 232 16487265360993127271
7970288 3 18411420617933059651

> <PUBCHEM_SHAPE_MULTIPOLES>
468.78
13.83
3.43
1.59
6.45
2.94
0.36
-14.19
-0.99
-2
0
0.66
-0.83
-0.38

> <PUBCHEM_SHAPE_SELFOVERLAP>
1004.92

> <PUBCHEM_SHAPE_VOLUME>
262.6

> <PUBCHEM_COORDINATE_TYPE>
2
5
10

$$$$
