15559100
  -OEChem-02172602583D

 79 82  0     1  0  0  0  0  0999 V2000
   -6.8413    1.4972   -1.7399 O   0  0  0  0  0  0  0  0  0  0  0  0
    3.0809    2.6124   -0.7312 O   0  0  0  0  0  0  0  0  0  0  0  0
    3.6485    1.8317    1.3222 O   0  0  0  0  0  0  0  0  0  0  0  0
    0.7903   -0.0574    0.1077 C   0  0  2  0  0  0  0  0  0  0  0  0
   -0.0253   -1.3231    0.5424 C   0  0  1  0  0  0  0  0  0  0  0  0
    2.2430   -0.5823    0.1962 C   0  0  1  0  0  0  0  0  0  0  0  0
   -1.5189   -1.0529    0.4171 C   0  0  0  0  0  0  0  0  0  0  0  0
   -3.5407    0.4700    0.6667 C   0  0  2  0  0  0  0  0  0  0  0  0
    0.6363   -2.3974   -0.3436 C   0  0  0  0  0  0  0  0  0  0  0  0
   -2.0127    0.1852    0.6843 C   0  0  0  0  0  0  0  0  0  0  0  0
    0.4328    1.0874    1.0579 C   0  0  0  0  0  0  0  0  0  0  0  0
    2.1356   -2.0214   -0.3658 C   0  0  0  0  0  0  0  0  0  0  0  0
   -4.2459   -0.5693   -0.2829 C   0  0  1  0  0  0  0  0  0  0  0  0
   -1.0872    1.3583    1.0402 C   0  0  0  0  0  0  0  0  0  0  0  0
   -2.3849   -2.2357    0.0582 C   0  0  0  0  0  0  0  0  0  0  0  0
   -3.8908   -1.9984    0.1570 C   0  0  0  0  0  0  0  0  0  0  0  0
    0.4955    0.4067   -1.3562 C   0  0  0  0  0  0  0  0  0  0  0  0
    0.1773   -1.7662    2.0263 C   0  0  0  0  0  0  0  0  0  0  0  0
    3.3191    0.2434   -0.4989 C   0  0  2  0  0  0  0  0  0  0  0  0
   -5.7693   -0.3535   -0.5859 C   0  0  0  0  0  0  0  0  0  0  0  0
   -3.8619    1.8806    0.1110 C   0  0  0  0  0  0  0  0  0  0  0  0
   -3.9812    0.3894    2.1472 C   0  0  0  0  0  0  0  0  0  0  0  0
   -5.3520    2.1574   -0.0136 C   0  0  0  0  0  0  0  0  0  0  0  0
   -6.0308    1.1314   -0.8858 C   0  0  0  0  0  0  0  0  0  0  0  0
    4.7076   -0.4219   -0.4479 C   0  0  0  0  0  0  0  0  0  0  0  0
   -6.7309   -0.7945    0.5271 C   0  0  0  0  0  0  0  0  0  0  0  0
   -6.1489   -1.1571   -1.8580 C   0  0  0  0  0  0  0  0  0  0  0  0
    3.3804    1.6196    0.1467 C   0  0  0  0  0  0  0  0  0  0  0  0
    5.7793    0.3629   -1.2097 C   0  0  0  0  0  0  0  0  0  0  0  0
    7.1063   -0.3414   -1.1565 C   0  0  0  0  0  0  0  0  0  0  0  0
    8.1049   -0.1502   -0.2737 C   0  0  0  0  0  0  0  0  0  0  0  0
    9.4124   -0.8903   -0.2753 C   0  0  0  0  0  0  0  0  0  0  0  0
    7.9725    0.8794    0.8167 C   0  0  0  0  0  0  0  0  0  0  0  0
    2.5287   -0.6541    1.2545 H   0  0  0  0  0  0  0  0  0  0  0  0
    0.2351   -2.3797   -1.3638 H   0  0  0  0  0  0  0  0  0  0  0  0
    0.4921   -3.4158    0.0343 H   0  0  0  0  0  0  0  0  0  0  0  0
    0.9373    2.0207    0.7915 H   0  0  0  0  0  0  0  0  0  0  0  0
    0.7529    0.8642    2.0821 H   0  0  0  0  0  0  0  0  0  0  0  0
    2.7167   -2.7146    0.2530 H   0  0  0  0  0  0  0  0  0  0  0  0
    2.5079   -2.1027   -1.3931 H   0  0  0  0  0  0  0  0  0  0  0  0
   -3.7565   -0.4287   -1.2629 H   0  0  0  0  0  0  0  0  0  0  0  0
   -1.2495    2.1504    0.2989 H   0  0  0  0  0  0  0  0  0  0  0  0
   -1.3717    1.7749    2.0128 H   0  0  0  0  0  0  0  0  0  0  0  0
   -2.1545   -2.5188   -0.9769 H   0  0  0  0  0  0  0  0  0  0  0  0
   -2.1316   -3.0984    0.6848 H   0  0  0  0  0  0  0  0  0  0  0  0
   -4.3885   -2.7500   -0.4633 H   0  0  0  0  0  0  0  0  0  0  0  0
   -4.2273   -2.1872    1.1821 H   0  0  0  0  0  0  0  0  0  0  0  0
    0.9519    1.3790   -1.5654 H   0  0  0  0  0  0  0  0  0  0  0  0
    0.8743   -0.2967   -2.1048 H   0  0  0  0  0  0  0  0  0  0  0  0
   -0.5725    0.5234   -1.5608 H   0  0  0  0  0  0  0  0  0  0  0  0
    1.2230   -1.9560    2.2832 H   0  0  0  0  0  0  0  0  0  0  0  0
   -0.2067   -1.0296    2.7406 H   0  0  0  0  0  0  0  0  0  0  0  0
   -0.3582   -2.7029    2.2262 H   0  0  0  0  0  0  0  0  0  0  0  0
    3.0731    0.3701   -1.5600 H   0  0  0  0  0  0  0  0  0  0  0  0
   -3.3973    1.9973   -0.8779 H   0  0  0  0  0  0  0  0  0  0  0  0
   -3.4336    2.6593    0.7541 H   0  0  0  0  0  0  0  0  0  0  0  0
   -3.7539   -0.5824    2.5978 H   0  0  0  0  0  0  0  0  0  0  0  0
   -3.4633    1.1425    2.7537 H   0  0  0  0  0  0  0  0  0  0  0  0
   -5.0431    0.5774    2.2917 H   0  0  0  0  0  0  0  0  0  0  0  0
   -5.4925    3.1443   -0.4698 H   0  0  0  0  0  0  0  0  0  0  0  0
   -5.8511    2.1791    0.9593 H   0  0  0  0  0  0  0  0  0  0  0  0
    5.0171   -0.5364    0.5997 H   0  0  0  0  0  0  0  0  0  0  0  0
    4.6573   -1.4327   -0.8693 H   0  0  0  0  0  0  0  0  0  0  0  0
   -6.6890   -0.1536    1.4077 H   0  0  0  0  0  0  0  0  0  0  0  0
   -7.7708   -0.7424    0.1802 H   0  0  0  0  0  0  0  0  0  0  0  0
   -6.5490   -1.8269    0.8405 H   0  0  0  0  0  0  0  0  0  0  0  0
   -5.5165   -0.8761   -2.7081 H   0  0  0  0  0  0  0  0  0  0  0  0
   -6.0572   -2.2367   -1.7068 H   0  0  0  0  0  0  0  0  0  0  0  0
   -7.1872   -0.9696   -2.1578 H   0  0  0  0  0  0  0  0  0  0  0  0
    5.8621    1.3905   -0.8433 H   0  0  0  0  0  0  0  0  0  0  0  0
    5.4864    0.4534   -2.2634 H   0  0  0  0  0  0  0  0  0  0  0  0
    3.1112    3.4963   -0.3069 H   0  0  0  0  0  0  0  0  0  0  0  0
    7.2482   -1.1031   -1.9218 H   0  0  0  0  0  0  0  0  0  0  0  0
   10.2467   -0.1904   -0.3868 H   0  0  0  0  0  0  0  0  0  0  0  0
    9.4669   -1.6101   -1.0986 H   0  0  0  0  0  0  0  0  0  0  0  0
    9.5402   -1.4427    0.6611 H   0  0  0  0  0  0  0  0  0  0  0  0
    8.2737    0.4443    1.7765 H   0  0  0  0  0  0  0  0  0  0  0  0
    6.9589    1.2591    0.9614 H   0  0  0  0  0  0  0  0  0  0  0  0
    8.6294    1.7305    0.6094 H   0  0  0  0  0  0  0  0  0  0  0  0
  1 24  2  0  0  0  0
  2 28  1  0  0  0  0
  2 72  1  0  0  0  0
  3 28  2  0  0  0  0
  4  5  1  0  0  0  0
  4  6  1  0  0  0  0
  4 11  1  0  0  0  0
  4 17  1  0  0  0  0
  5  7  1  0  0  0  0
  5  9  1  0  0  0  0
  5 18  1  0  0  0  0
  6 12  1  0  0  0  0
  6 19  1  0  0  0  0
  6 34  1  0  0  0  0
  7 10  2  0  0  0  0
  7 15  1  0  0  0  0
  8 10  1  0  0  0  0
  8 13  1  0  0  0  0
  8 21  1  0  0  0  0
  8 22  1  0  0  0  0
  9 12  1  0  0  0  0
  9 35  1  0  0  0  0
  9 36  1  0  0  0  0
 10 14  1  0  0  0  0
 11 14  1  0  0  0  0
 11 37  1  0  0  0  0
 11 38  1  0  0  0  0
 12 39  1  0  0  0  0
 12 40  1  0  0  0  0
 13 16  1  0  0  0  0
 13 20  1  0  0  0  0
 13 41  1  0  0  0  0
 14 42  1  0  0  0  0
 14 43  1  0  0  0  0
 15 16  1  0  0  0  0
 15 44  1  0  0  0  0
 15 45  1  0  0  0  0
 16 46  1  0  0  0  0
 16 47  1  0  0  0  0
 17 48  1  0  0  0  0
 17 49  1  0  0  0  0
 17 50  1  0  0  0  0
 18 51  1  0  0  0  0
 18 52  1  0  0  0  0
 18 53  1  0  0  0  0
 19 25  1  0  0  0  0
 19 28  1  0  0  0  0
 19 54  1  0  0  0  0
 20 24  1  0  0  0  0
 20 26  1  0  0  0  0
 20 27  1  0  0  0  0
 21 23  1  0  0  0  0
 21 55  1  0  0  0  0
 21 56  1  0  0  0  0
 22 57  1  0  0  0  0
 22 58  1  0  0  0  0
 22 59  1  0  0  0  0
 23 24  1  0  0  0  0
 23 60  1  0  0  0  0
 23 61  1  0  0  0  0
 25 29  1  0  0  0  0
 25 62  1  0  0  0  0
 25 63  1  0  0  0  0
 26 64  1  0  0  0  0
 26 65  1  0  0  0  0
 26 66  1  0  0  0  0
 27 67  1  0  0  0  0
 27 68  1  0  0  0  0
 27 69  1  0  0  0  0
 29 30  1  0  0  0  0
 29 70  1  0  0  0  0
 29 71  1  0  0  0  0
 30 31  2  0  0  0  0
 30 73  1  0  0  0  0
 31 32  1  0  0  0  0
 31 33  1  0  0  0  0
 32 74  1  0  0  0  0
 32 75  1  0  0  0  0
 32 76  1  0  0  0  0
 33 77  1  0  0  0  0
 33 78  1  0  0  0  0
 33 79  1  0  0  0  0
M  END
> <PUBCHEM_COMPOUND_CID>
15559100

> <PUBCHEM_CONFORMER_RMSD>
1

> <PUBCHEM_CONFORMER_DIVERSEORDER>
1
4
8
7
5
3
6
2

> <PUBCHEM_MMFF94_PARTIAL_CHARGES>
21
1 -0.57
10 -0.28
14 0.14
15 0.14
19 0.06
2 -0.65
20 0.06
23 0.06
24 0.45
28 0.66
29 0.14
3 -0.57
30 -0.29
31 -0.28
32 0.14
33 0.14
5 0.14
7 -0.28
72 0.5
73 0.15
8 0.14

> <PUBCHEM_EFFECTIVE_ROTOR_COUNT>
7

> <PUBCHEM_PHARMACOPHORE_FEATURES>
11
1 1 acceptor
1 2 acceptor
1 3 acceptor
3 2 3 28 anion
3 20 26 27 hydrophobe
3 31 32 33 hydrophobe
4 19 25 29 30 hydrophobe
5 4 5 6 9 12 rings
6 4 5 7 10 11 14 rings
6 7 8 10 13 15 16 rings
6 8 13 20 21 23 24 rings

> <PUBCHEM_HEAVY_ATOM_COUNT>
33

> <PUBCHEM_ATOM_DEF_STEREO_COUNT>
6

> <PUBCHEM_ATOM_UDEF_STEREO_COUNT>
0

> <PUBCHEM_BOND_DEF_STEREO_COUNT>
0

> <PUBCHEM_BOND_UDEF_STEREO_COUNT>
0

> <PUBCHEM_ISOTOPIC_ATOM_COUNT>
0

> <PUBCHEM_COMPONENT_COUNT>
1

> <PUBCHEM_CACTVS_TAUTO_COUNT>
2

> <PUBCHEM_CONFORMER_ID>
00ED69BC00000001

> <PUBCHEM_MMFF94_ENERGY>
112.0092

> <PUBCHEM_FEATURE_SELFOVERLAP>
55.975

> <PUBCHEM_SHAPE_FINGERPRINT>
10 15 8718831976512112197
10299344 5 10735875071884613454
10670039 82 18334010575552631637
11135926 11 18271813393244745359
11181472 205 16805882884747221732
11315181 36 17489591160305903673
11578080 2 17460018596728135015
12633257 1 14418140617239555191
12664476 115 18259705614634275477
12788726 201 17274266016348809025
12838862 33 18340194242649193056
13782708 43 14836406908470262916
13811026 1 18130503115645644256
13914758 101 18259703394041224738
14251764 18 18040994038539007706
14856354 85 14923950076124839555
15064986 96 13407068168130681056
15131766 46 16446465942657402268
15183329 4 18334017190323902702
15301273 46 12107784099782299146
15461852 350 17775565364472607668
16110190 28 8070021164457070633
18681886 176 18201431497903192202
19611394 137 17605855813666392305
21033648 29 17676488401400286928
21150785 3 16487254361803226510
21859007 373 18335127688468336452
22393880 68 18343579668383202095
23559900 14 18343301500457359160
23569917 315 18341900739819115254
23569943 247 17414455892032177982
23576562 1 18117289257843675900
24771293 8 18131641076106010240
249057 3 18343584066334611918
2838139 119 18335423482095222733
3004659 81 18411979174155367232
335352 9 18410298030162491878
4017518 198 17989213647132665606
4353968 344 18200032820913923948
44880568 143 17489036972318628448
484989 97 18200315549103661106
5028188 123 13334748938176318882
59755656 215 18412263913554934766
59755656 520 17603585269988478426
6004065 56 17417810665200675272
6086070 43 18411130364221790752
6138700 20 18411704279442898936
6328613 192 17968106364899048844
6371380 46 18186803608640723424
9953998 17 8214146265792420567

> <PUBCHEM_SHAPE_MULTIPOLES>
661.52
21.71
2.29
1.46
31.9
0
0.15
2.4
-6.47
-1.25
0.07
-1.12
0.05
0.48

> <PUBCHEM_SHAPE_SELFOVERLAP>
1392.065

> <PUBCHEM_SHAPE_VOLUME>
372.3

> <PUBCHEM_COORDINATE_TYPE>
2
5
10

$$$$
