10116
  -OEChem-02172602433D

 52 54  0     1  0  0  0  0  0999 V2000
    4.0126    0.2519    1.6428 O   0  0  0  0  0  0  0  0  0  0  0  0
    4.2907   -1.3578    0.0433 O   0  0  0  0  0  0  0  0  0  0  0  0
    0.5628   -0.5550    0.4117 C   0  0  1  0  0  0  0  0  0  0  0  0
    1.4878    0.7358    0.3336 C   0  0  1  0  0  0  0  0  0  0  0  0
   -0.8461   -0.1887    1.0568 C   0  0  1  0  0  0  0  0  0  0  0  0
    2.8487    0.5042   -0.4197 C   0  0  1  0  0  0  0  0  0  0  0  0
    0.4114   -1.1458   -1.0177 C   0  0  0  0  0  0  0  0  0  0  0  0
    0.7263    1.9316   -0.3020 C   0  0  0  0  0  0  0  0  0  0  0  0
   -1.4780    1.0367    0.4300 C   0  0  0  0  0  0  0  0  0  0  0  0
    2.6372   -0.1792   -1.7832 C   0  0  0  0  0  0  0  0  0  0  0  0
    1.7419   -1.4096   -1.7225 C   0  0  0  0  0  0  0  0  0  0  0  0
   -1.8263   -1.3887    1.1404 C   0  0  0  0  0  0  0  0  0  0  0  0
   -0.5925    2.2427    0.3817 C   0  0  0  0  0  0  0  0  0  0  0  0
    1.1958   -1.6329    1.3338 C   0  0  0  0  0  0  0  0  0  0  0  0
   -3.2802   -0.9557    1.3284 C   0  0  0  0  0  0  0  0  0  0  0  0
   -3.7548   -0.0255    0.1898 C   0  0  2  0  0  0  0  0  0  0  0  0
    3.6410    1.8109   -0.6482 C   0  0  0  0  0  0  0  0  0  0  0  0
   -2.7544    1.0933    0.0100 C   0  0  0  0  0  0  0  0  0  0  0  0
    3.7929   -0.3113    0.4305 C   0  0  0  0  0  0  0  0  0  0  0  0
   -5.1216    0.5641    0.5784 C   0  0  0  0  0  0  0  0  0  0  0  0
   -3.9205   -0.7836   -1.1030 C   0  0  0  0  0  0  0  0  0  0  0  0
   -3.7746   -0.2373   -2.3149 C   0  0  0  0  0  0  0  0  0  0  0  0
    1.7025    1.0343    1.3697 H   0  0  0  0  0  0  0  0  0  0  0  0
   -0.6465    0.1024    2.1006 H   0  0  0  0  0  0  0  0  0  0  0  0
   -0.1898   -0.4749   -1.6428 H   0  0  0  0  0  0  0  0  0  0  0  0
   -0.1268   -2.0991   -0.9896 H   0  0  0  0  0  0  0  0  0  0  0  0
    0.5456    1.7507   -1.3681 H   0  0  0  0  0  0  0  0  0  0  0  0
    1.3332    2.8415   -0.2380 H   0  0  0  0  0  0  0  0  0  0  0  0
    3.5973   -0.4613   -2.2349 H   0  0  0  0  0  0  0  0  0  0  0  0
    2.1827    0.5341   -2.4832 H   0  0  0  0  0  0  0  0  0  0  0  0
    1.5357   -1.7450   -2.7467 H   0  0  0  0  0  0  0  0  0  0  0  0
    2.2649   -2.2435   -1.2440 H   0  0  0  0  0  0  0  0  0  0  0  0
   -1.5500   -2.0283    1.9873 H   0  0  0  0  0  0  0  0  0  0  0  0
   -1.7726   -2.0197    0.2498 H   0  0  0  0  0  0  0  0  0  0  0  0
   -1.0767    3.0782   -0.1381 H   0  0  0  0  0  0  0  0  0  0  0  0
   -0.4024    2.5836    1.4074 H   0  0  0  0  0  0  0  0  0  0  0  0
    2.1235   -2.0523    0.9516 H   0  0  0  0  0  0  0  0  0  0  0  0
    1.3960   -1.2249    2.3307 H   0  0  0  0  0  0  0  0  0  0  0  0
    0.5348   -2.4965    1.4569 H   0  0  0  0  0  0  0  0  0  0  0  0
   -3.9181   -1.8469    1.3927 H   0  0  0  0  0  0  0  0  0  0  0  0
   -3.3696   -0.4452    2.2977 H   0  0  0  0  0  0  0  0  0  0  0  0
    4.6698    1.6044   -0.9698 H   0  0  0  0  0  0  0  0  0  0  0  0
    3.1878    2.4302   -1.4302 H   0  0  0  0  0  0  0  0  0  0  0  0
    3.7016    2.4159    0.2640 H   0  0  0  0  0  0  0  0  0  0  0  0
   -3.1200    2.0215   -0.4267 H   0  0  0  0  0  0  0  0  0  0  0  0
   -5.8649   -0.2264    0.7387 H   0  0  0  0  0  0  0  0  0  0  0  0
   -5.0553    1.1466    1.5055 H   0  0  0  0  0  0  0  0  0  0  0  0
   -5.5150    1.2327   -0.1975 H   0  0  0  0  0  0  0  0  0  0  0  0
   -4.2325   -1.8241   -1.0472 H   0  0  0  0  0  0  0  0  0  0  0  0
    4.6254   -0.2839    2.1900 H   0  0  0  0  0  0  0  0  0  0  0  0
   -3.9377   -0.8449   -3.1996 H   0  0  0  0  0  0  0  0  0  0  0  0
   -3.5112    0.8005   -2.4787 H   0  0  0  0  0  0  0  0  0  0  0  0
  1 19  1  0  0  0  0
  1 50  1  0  0  0  0
  2 19  2  0  0  0  0
  3  4  1  0  0  0  0
  3  5  1  0  0  0  0
  3  7  1  0  0  0  0
  3 14  1  0  0  0  0
  4  6  1  0  0  0  0
  4  8  1  0  0  0  0
  4 23  1  0  0  0  0
  5  9  1  0  0  0  0
  5 12  1  0  0  0  0
  5 24  1  0  0  0  0
  6 10  1  0  0  0  0
  6 17  1  0  0  0  0
  6 19  1  0  0  0  0
  7 11  1  0  0  0  0
  7 25  1  0  0  0  0
  7 26  1  0  0  0  0
  8 13  1  0  0  0  0
  8 27  1  0  0  0  0
  8 28  1  0  0  0  0
  9 13  1  0  0  0  0
  9 18  2  0  0  0  0
 10 11  1  0  0  0  0
 10 29  1  0  0  0  0
 10 30  1  0  0  0  0
 11 31  1  0  0  0  0
 11 32  1  0  0  0  0
 12 15  1  0  0  0  0
 12 33  1  0  0  0  0
 12 34  1  0  0  0  0
 13 35  1  0  0  0  0
 13 36  1  0  0  0  0
 14 37  1  0  0  0  0
 14 38  1  0  0  0  0
 14 39  1  0  0  0  0
 15 16  1  0  0  0  0
 15 40  1  0  0  0  0
 15 41  1  0  0  0  0
 16 18  1  0  0  0  0
 16 20  1  0  0  0  0
 16 21  1  0  0  0  0
 17 42  1  0  0  0  0
 17 43  1  0  0  0  0
 17 44  1  0  0  0  0
 18 45  1  0  0  0  0
 20 46  1  0  0  0  0
 20 47  1  0  0  0  0
 20 48  1  0  0  0  0
 21 22  2  0  0  0  0
 21 49  1  0  0  0  0
 22 51  1  0  0  0  0
 22 52  1  0  0  0  0
M  END
> <PUBCHEM_COMPOUND_CID>
10116

> <PUBCHEM_CONFORMER_RMSD>
0.6

> <PUBCHEM_CONFORMER_DIVERSEORDER>
2
148
194
240
242
33
163
34
175
229
186
123
166
174
196
78
167
8
258
184
110
234
247
160
95
195
99
171
217
225
214
157
210
155
21
62
26
236
138
209
5
84
105
238
76
52
1
191
170
132
127
83
254
73
176
66
94
211
220
259
244
207
48
100
120
68
43
92
246
237
245
197
141
118
200
169
159
201
46
134
117
203
224
190
27
187
230
77
103
253
152
156
107
250
11
96
198
116
9
252
108
192
4
24
222
178
47
256
121
216
14
145
90
67
239
161
135
38
212
114
10
219
243
255
142
17
153
251
50
177
64
35
248
180
241
232
89
150
32
162
106
56
179
185
124
164
199
227
80
206
133
165
129
22
45
140
249
158
202
71
231
131
208
213
40
188
102
205
226
75
235
168
181
126
189
144
79
193
143
173
23
223
86
82
70
63
51
204
81
93
74
85
115
98
13
58
42
113
257
19
109
30
61
130
91
57
112
136
233
20
122
49
97
119
72
183
221
88
137
215
87
55
39
104
151
59
147
139
146
60
111
218
182
25
125
228
6
15
28
101
7
54
69
16
18
44
154
65
53
149
3
37
36
128
172
29
31
41
12

> <PUBCHEM_MMFF94_PARTIAL_CHARGES>
16
1 -0.65
13 0.14
16 0.28
18 -0.29
19 0.66
2 -0.57
21 -0.29
22 -0.3
45 0.15
49 0.15
5 0.14
50 0.5
51 0.15
52 0.15
6 0.06
9 -0.28

> <PUBCHEM_EFFECTIVE_ROTOR_COUNT>
3.8

> <PUBCHEM_PHARMACOPHORE_FEATURES>
7
1 1 acceptor
1 2 acceptor
1 22 hydrophobe
3 1 2 19 anion
6 3 4 5 8 9 13 rings
6 3 4 6 7 10 11 rings
6 5 9 12 15 16 18 rings

> <PUBCHEM_HEAVY_ATOM_COUNT>
22

> <PUBCHEM_ATOM_DEF_STEREO_COUNT>
0

> <PUBCHEM_ATOM_UDEF_STEREO_COUNT>
5

> <PUBCHEM_BOND_DEF_STEREO_COUNT>
0

> <PUBCHEM_BOND_UDEF_STEREO_COUNT>
0

> <PUBCHEM_ISOTOPIC_ATOM_COUNT>
0

> <PUBCHEM_COMPONENT_COUNT>
1

> <PUBCHEM_CACTVS_TAUTO_COUNT>
1

> <PUBCHEM_CONFORMER_ID>
0000278400000002

> <PUBCHEM_MMFF94_ENERGY>
68.4909

> <PUBCHEM_FEATURE_SELFOVERLAP>
35.644

> <PUBCHEM_SHAPE_FINGERPRINT>
10062212 137 18342455937445230929
10646746 165 16009021766047894999
10863032 1 17968100884066851136
11132069 177 18060701693033353373
11370993 70 17240473723942062179
11578080 2 17023734749243348380
12403259 415 17313104154937473565
12553582 1 18202010957679594909
12596599 1 16056891259557630165
12788726 201 18271259222178564969
128620 24 17132114649737981095
13134695 92 18411416245645478004
13140716 1 18263368164664378969
13224815 77 18202291302826348205
13583140 156 17749947902748791860
13675066 3 16226047816297636593
14115302 16 17603597330203235171
14289901 80 16702028564567310242
15163728 17 15795706799607658708
15196674 1 18261118508076063593
15375358 24 18341899580240176785
15788980 27 18410573968214253035
16945 1 17917444150007982656
17349148 13 18335419041225483106
17492 54 18199461250106902797
17980427 23 18408605859739393252
18186145 218 17603589637853432921
192875 21 18408321077468701924
19862831 5 18113336405655857043
200 152 18272650147336490649
20645477 70 18335145301685527466
21033648 29 16805593798355622677
21267235 1 18261405411638358843
23402539 116 18341326721359282187
23557571 272 18270965618018414128
23559900 14 18260272971181905432
2748010 2 17901394703389650865
296302 2 18336835276753272405
34934 24 18264773345120479760
5104073 3 18114751524487096529
633830 44 18336557065767038565
6913067 236 17560218272298783752
7495541 125 17604159232775499673
81228 2 18195549003062562561
9709674 26 18340497663969997318

> <PUBCHEM_SHAPE_MULTIPOLES>
441.01
8.53
1.86
1.7
2.59
0.53
0.7
-0.12
0.51
-0.63
-0.12
0.37
-0.58
-0.09

> <PUBCHEM_SHAPE_SELFOVERLAP>
929.612

> <PUBCHEM_SHAPE_VOLUME>
244.9

> <PUBCHEM_COORDINATE_TYPE>
2
5
10

$$$$
