534406
  -OEChem-02172602543D

 53 52  0     1  0  0  0  0  0999 V2000
    4.8470    1.8569   -1.5577 F   0  0  0  0  0  0  0  0  0  0  0  0
    4.6302    3.0209    0.2724 F   0  0  0  0  0  0  0  0  0  0  0  0
    6.5884    2.2604   -0.3106 F   0  0  0  0  0  0  0  0  0  0  0  0
    4.4140   -0.2256   -0.3083 O   0  0  0  0  0  0  0  0  0  0  0  0
    5.2990    0.5498    1.6793 O   0  0  0  0  0  0  0  0  0  0  0  0
   -0.9731   -0.7270   -0.0798 C   0  0  0  0  0  0  0  0  0  0  0  0
   -2.2854   -0.6092    0.6996 C   0  0  0  0  0  0  0  0  0  0  0  0
    0.2379   -1.0239    0.8112 C   0  0  0  0  0  0  0  0  0  0  0  0
   -3.5072   -0.3845   -0.1980 C   0  0  0  0  0  0  0  0  0  0  0  0
    1.5567   -1.1204    0.0379 C   0  0  0  0  0  0  0  0  0  0  0  0
   -4.8408   -0.1740    0.5266 C   0  0  0  0  0  0  0  0  0  0  0  0
    2.7325   -1.3821    0.9877 C   0  0  0  0  0  0  0  0  0  0  0  0
   -6.0697   -0.0171   -0.3736 C   0  0  0  0  0  0  0  0  0  0  0  0
    4.1052   -1.4749    0.3051 C   0  0  1  0  0  0  0  0  0  0  0  0
   -7.3632    0.2388    0.4025 C   0  0  0  0  0  0  0  0  0  0  0  0
    4.2078   -2.6102   -0.7197 C   0  0  0  0  0  0  0  0  0  0  0  0
   -8.5573    0.3805   -0.5442 C   0  0  0  0  0  0  0  0  0  0  0  0
   -9.8452    0.6745    0.2246 C   0  0  0  0  0  0  0  0  0  0  0  0
    5.5834   -2.6674   -1.3728 C   0  0  0  0  0  0  0  0  0  0  0  0
  -11.0393    0.7821   -0.7102 C   0  0  0  0  0  0  0  0  0  0  0  0
    5.0119    0.6989    0.4993 C   0  0  0  0  0  0  0  0  0  0  0  0
    5.2673    1.9532   -0.2712 C   0  0  0  0  0  0  0  0  0  0  0  0
   -1.0683   -1.5234   -0.8281 H   0  0  0  0  0  0  0  0  0  0  0  0
   -0.7969    0.2053   -0.6302 H   0  0  0  0  0  0  0  0  0  0  0  0
   -2.2059    0.2205    1.4124 H   0  0  0  0  0  0  0  0  0  0  0  0
   -2.4417   -1.5202    1.2902 H   0  0  0  0  0  0  0  0  0  0  0  0
    0.3212   -0.2352    1.5695 H   0  0  0  0  0  0  0  0  0  0  0  0
    0.0645   -1.9638    1.3499 H   0  0  0  0  0  0  0  0  0  0  0  0
   -3.3206    0.4882   -0.8367 H   0  0  0  0  0  0  0  0  0  0  0  0
   -3.6073   -1.2441   -0.8728 H   0  0  0  0  0  0  0  0  0  0  0  0
    1.4731   -1.9280   -0.6970 H   0  0  0  0  0  0  0  0  0  0  0  0
    1.7252   -0.1894   -0.5156 H   0  0  0  0  0  0  0  0  0  0  0  0
   -5.0085   -1.0222    1.2024 H   0  0  0  0  0  0  0  0  0  0  0  0
   -4.7523    0.7150    1.1638 H   0  0  0  0  0  0  0  0  0  0  0  0
    2.7572   -0.5765    1.7322 H   0  0  0  0  0  0  0  0  0  0  0  0
    2.5477   -2.3142    1.5362 H   0  0  0  0  0  0  0  0  0  0  0  0
   -5.8956    0.8125   -1.0700 H   0  0  0  0  0  0  0  0  0  0  0  0
   -6.1825   -0.9226   -0.9824 H   0  0  0  0  0  0  0  0  0  0  0  0
    4.8480   -1.6987    1.0834 H   0  0  0  0  0  0  0  0  0  0  0  0
   -7.5419   -0.5873    1.1012 H   0  0  0  0  0  0  0  0  0  0  0  0
   -7.2554    1.1517    1.0006 H   0  0  0  0  0  0  0  0  0  0  0  0
    3.9867   -3.5701   -0.2399 H   0  0  0  0  0  0  0  0  0  0  0  0
    3.4782   -2.4636   -1.5236 H   0  0  0  0  0  0  0  0  0  0  0  0
   -8.3664    1.1891   -1.2603 H   0  0  0  0  0  0  0  0  0  0  0  0
   -8.6763   -0.5430   -1.1239 H   0  0  0  0  0  0  0  0  0  0  0  0
  -10.0326   -0.1209    0.9553 H   0  0  0  0  0  0  0  0  0  0  0  0
   -9.7393    1.6111    0.7843 H   0  0  0  0  0  0  0  0  0  0  0  0
    5.7982   -1.7536   -1.9356 H   0  0  0  0  0  0  0  0  0  0  0  0
    6.3680   -2.8026   -0.6214 H   0  0  0  0  0  0  0  0  0  0  0  0
    5.6336   -3.5095   -2.0704 H   0  0  0  0  0  0  0  0  0  0  0  0
  -10.8978    1.5894   -1.4359 H   0  0  0  0  0  0  0  0  0  0  0  0
  -11.9492    0.9936   -0.1400 H   0  0  0  0  0  0  0  0  0  0  0  0
  -11.1926   -0.1518   -1.2604 H   0  0  0  0  0  0  0  0  0  0  0  0
  1 22  1  0  0  0  0
  2 22  1  0  0  0  0
  3 22  1  0  0  0  0
  4 14  1  0  0  0  0
  4 21  1  0  0  0  0
  5 21  2  0  0  0  0
  6  7  1  0  0  0  0
  6  8  1  0  0  0  0
  6 23  1  0  0  0  0
  6 24  1  0  0  0  0
  7  9  1  0  0  0  0
  7 25  1  0  0  0  0
  7 26  1  0  0  0  0
  8 10  1  0  0  0  0
  8 27  1  0  0  0  0
  8 28  1  0  0  0  0
  9 11  1  0  0  0  0
  9 29  1  0  0  0  0
  9 30  1  0  0  0  0
 10 12  1  0  0  0  0
 10 31  1  0  0  0  0
 10 32  1  0  0  0  0
 11 13  1  0  0  0  0
 11 33  1  0  0  0  0
 11 34  1  0  0  0  0
 12 14  1  0  0  0  0
 12 35  1  0  0  0  0
 12 36  1  0  0  0  0
 13 15  1  0  0  0  0
 13 37  1  0  0  0  0
 13 38  1  0  0  0  0
 14 16  1  0  0  0  0
 14 39  1  0  0  0  0
 15 17  1  0  0  0  0
 15 40  1  0  0  0  0
 15 41  1  0  0  0  0
 16 19  1  0  0  0  0
 16 42  1  0  0  0  0
 16 43  1  0  0  0  0
 17 18  1  0  0  0  0
 17 44  1  0  0  0  0
 17 45  1  0  0  0  0
 18 20  1  0  0  0  0
 18 46  1  0  0  0  0
 18 47  1  0  0  0  0
 19 48  1  0  0  0  0
 19 49  1  0  0  0  0
 19 50  1  0  0  0  0
 20 51  1  0  0  0  0
 20 52  1  0  0  0  0
 20 53  1  0  0  0  0
 21 22  1  0  0  0  0
M  END
> <PUBCHEM_COMPOUND_CID>
534406

> <PUBCHEM_CONFORMER_RMSD>
1.4

> <PUBCHEM_CONFORMER_DIVERSEORDER>
1
115
12
75
42
53
43
25
106
48
102
10
114
107
67
65
81
109
23
78
49
18
79
103
94
93
80
70
55
119
100
29
85
38
26
117
27
37
2
44
60
88
105
9
46
5
35
6
56
24
118
22
34
96
97
21
57
83
40
89
113
41
72
69
82
19
63
101
31
116
32
28
52
74
39
4
71
17
14
36
47
99
112
108
87
45
77
76
30
7
66
13
90
11
61
3
50
111
58
86
92
84
51
91
98
73
15
110
20
64
62
59
95
8
68
33
16
104
54

> <PUBCHEM_MMFF94_PARTIAL_CHARGES>
8
1 -0.34
14 0.28
2 -0.34
21 0.66
22 1.08
3 -0.34
4 -0.43
5 -0.57

> <PUBCHEM_EFFECTIVE_ROTOR_COUNT>
15

> <PUBCHEM_PHARMACOPHORE_FEATURES>
3
1 19 hydrophobe
1 20 hydrophobe
1 5 acceptor

> <PUBCHEM_HEAVY_ATOM_COUNT>
22

> <PUBCHEM_ATOM_DEF_STEREO_COUNT>
0

> <PUBCHEM_ATOM_UDEF_STEREO_COUNT>
1

> <PUBCHEM_BOND_DEF_STEREO_COUNT>
0

> <PUBCHEM_BOND_UDEF_STEREO_COUNT>
0

> <PUBCHEM_ISOTOPIC_ATOM_COUNT>
0

> <PUBCHEM_COMPONENT_COUNT>
1

> <PUBCHEM_CACTVS_TAUTO_COUNT>
1

> <PUBCHEM_CONFORMER_ID>
0008278600000001

> <PUBCHEM_MMFF94_ENERGY>
9.2489

> <PUBCHEM_FEATURE_SELFOVERLAP>
15.223

> <PUBCHEM_SHAPE_FINGERPRINT>
11135609 127 18201713003271942472
11211813 74 18334010576264508781
11315181 36 18413109456284346339
125118 31 18335421240818886057
13617811 41 15051735287281666923
14142895 15 18338515352728521839
14251757 52 18335136488818545377
14251764 18 14851609869766741627
14251764 46 18131347471571956251
14617042 71 18187650245131704325
15183329 4 16773803601766182969
155225 6 17607538113533816212
15840311 113 18408044000833674703
16120349 18 18409725175946219093
1754908 1 16370732526719199153
1818759 1 13686294713252039621
20157964 124 18410293605687183426
20554085 129 16225763021976111449
20771845 171 17418101996262200279
20812841 46 17967525762888192154
21360442 33 18195810669624444678
21360442 67 18342739598798757391
21362267 313 12324511006240318063
22224240 67 17603584119933989435
23081809 10 17346604041312042755
34797466 226 18411700963464681663
444735 82 18113339708860761213
59521099 67 18060417994118717592
59682541 35 17458068162886891369
59682541 52 18059581256541689438
60111433 81 18124033700471082164
6438161 24 12607409870965902740
67123 10 18408602566485316267

> <PUBCHEM_SHAPE_MULTIPOLES>
419.19
32.09
2.46
1.09
90.53
0.8
0.02
12.08
6.38
-8.71
0.72
-1.2
-0.09
0.77

> <PUBCHEM_SHAPE_SELFOVERLAP>
784.942

> <PUBCHEM_SHAPE_VOLUME>
261.5

> <PUBCHEM_COORDINATE_TYPE>
2
5
10

$$$$
