3018525
  -OEChem-03052615053D

 65 64  0     1  0  0  0  0  0999 V2000
   -4.7206   -0.8221   -0.1122 O   0  0  0  0  0  0  0  0  0  0  0  0
   -3.3729   -2.3471   -1.9950 O   0  0  0  0  0  0  0  0  0  0  0  0
   -0.4391   -1.8306   -2.1356 O   0  0  0  0  0  0  0  0  0  0  0  0
   -1.3792    3.4934    0.8616 C   0  0  2  0  0  0  0  0  0  0  0  0
   -0.2932    3.3141   -0.2236 C   0  0  0  0  0  0  0  0  0  0  0  0
   -1.7914    2.1356    1.4658 C   0  0  0  0  0  0  0  0  0  0  0  0
    3.3299    1.8286   -0.5144 C   0  0  1  0  0  0  0  0  0  0  0  0
    0.9807    2.5902    0.2294 C   0  0  0  0  0  0  0  0  0  0  0  0
    2.0077    2.5252   -0.9083 C   0  0  0  0  0  0  0  0  0  0  0  0
   -2.4748    1.1511    0.5038 C   0  0  0  0  0  0  0  0  0  0  0  0
   -2.8032   -0.1994    1.1455 C   0  0  0  0  0  0  0  0  0  0  0  0
   -3.3959   -1.2813    0.2098 C   0  0  2  0  0  0  0  0  0  0  0  0
    3.1051    0.2999   -0.5048 C   0  0  0  0  0  0  0  0  0  0  0  0
    4.2789   -0.5506   -0.0034 C   0  0  0  0  0  0  0  0  0  0  0  0
   -2.5806    4.2827    0.3366 C   0  0  0  0  0  0  0  0  0  0  0  0
   -2.6260   -1.5041   -1.1218 C   0  0  1  0  0  0  0  0  0  0  0  0
    4.4766    2.2217   -1.4504 C   0  0  0  0  0  0  0  0  0  0  0  0
    4.0269   -2.0617    0.0620 C   0  0  0  0  0  0  0  0  0  0  0  0
   -3.5692   -2.6093    0.9650 C   0  0  0  0  0  0  0  0  0  0  0  0
    2.8237   -2.5014    0.9176 C   0  0  0  0  0  0  0  0  0  0  0  0
   -1.2141   -2.0800   -0.9756 C   0  0  0  0  0  0  0  0  0  0  0  0
    3.0225   -2.0399    2.3639 C   0  0  0  0  0  0  0  0  0  0  0  0
    2.6083   -4.0150    0.8841 C   0  0  0  0  0  0  0  0  0  0  0  0
   -0.9367    4.0836    1.6755 H   0  0  0  0  0  0  0  0  0  0  0  0
   -0.7160    2.7965   -1.0933 H   0  0  0  0  0  0  0  0  0  0  0  0
   -0.0109    4.3130   -0.5829 H   0  0  0  0  0  0  0  0  0  0  0  0
   -2.4874    2.3325    2.2929 H   0  0  0  0  0  0  0  0  0  0  0  0
   -0.9263    1.6526    1.9338 H   0  0  0  0  0  0  0  0  0  0  0  0
    3.6069    2.1506    0.4977 H   0  0  0  0  0  0  0  0  0  0  0  0
    1.4132    3.1117    1.0911 H   0  0  0  0  0  0  0  0  0  0  0  0
    0.7336    1.5748    0.5485 H   0  0  0  0  0  0  0  0  0  0  0  0
    2.2312    3.5555   -1.2145 H   0  0  0  0  0  0  0  0  0  0  0  0
    1.5683    2.0318   -1.7845 H   0  0  0  0  0  0  0  0  0  0  0  0
   -3.3968    1.5920    0.1100 H   0  0  0  0  0  0  0  0  0  0  0  0
   -1.8056    0.9865   -0.3447 H   0  0  0  0  0  0  0  0  0  0  0  0
   -3.4997   -0.0160    1.9749 H   0  0  0  0  0  0  0  0  0  0  0  0
   -1.8849   -0.5936    1.5994 H   0  0  0  0  0  0  0  0  0  0  0  0
    2.8381   -0.0360   -1.5153 H   0  0  0  0  0  0  0  0  0  0  0  0
    2.2394    0.0854    0.1280 H   0  0  0  0  0  0  0  0  0  0  0  0
    4.5937   -0.1861    0.9813 H   0  0  0  0  0  0  0  0  0  0  0  0
    5.1384   -0.3976   -0.6668 H   0  0  0  0  0  0  0  0  0  0  0  0
   -3.3518    4.3799    1.1076 H   0  0  0  0  0  0  0  0  0  0  0  0
   -3.0281    3.8038   -0.5400 H   0  0  0  0  0  0  0  0  0  0  0  0
   -2.2741    5.2918    0.0408 H   0  0  0  0  0  0  0  0  0  0  0  0
   -2.5739   -0.5509   -1.6598 H   0  0  0  0  0  0  0  0  0  0  0  0
    5.4305    1.8087   -1.1094 H   0  0  0  0  0  0  0  0  0  0  0  0
    4.5899    3.3106   -1.4858 H   0  0  0  0  0  0  0  0  0  0  0  0
    4.2927    1.8680   -2.4703 H   0  0  0  0  0  0  0  0  0  0  0  0
    3.8765   -2.4279   -0.9619 H   0  0  0  0  0  0  0  0  0  0  0  0
    4.9378   -2.5510    0.4306 H   0  0  0  0  0  0  0  0  0  0  0  0
   -4.0874   -3.3521    0.3485 H   0  0  0  0  0  0  0  0  0  0  0  0
   -4.1888   -2.4703    1.8588 H   0  0  0  0  0  0  0  0  0  0  0  0
   -2.6084   -3.0258    1.2825 H   0  0  0  0  0  0  0  0  0  0  0  0
    1.9090   -2.0419    0.5267 H   0  0  0  0  0  0  0  0  0  0  0  0
   -0.6888   -1.6180   -0.1353 H   0  0  0  0  0  0  0  0  0  0  0  0
   -1.2479   -3.1638   -0.8240 H   0  0  0  0  0  0  0  0  0  0  0  0
   -5.2253   -0.7388    0.7148 H   0  0  0  0  0  0  0  0  0  0  0  0
    3.9660   -2.4131    2.7767 H   0  0  0  0  0  0  0  0  0  0  0  0
    3.0193   -0.9487    2.4437 H   0  0  0  0  0  0  0  0  0  0  0  0
    2.2100   -2.4073    3.0006 H   0  0  0  0  0  0  0  0  0  0  0  0
    3.4778   -4.5484    1.2827 H   0  0  0  0  0  0  0  0  0  0  0  0
    2.4422   -4.3577   -0.1426 H   0  0  0  0  0  0  0  0  0  0  0  0
    1.7329   -4.2989    1.4776 H   0  0  0  0  0  0  0  0  0  0  0  0
   -2.8654   -2.4410   -2.8194 H   0  0  0  0  0  0  0  0  0  0  0  0
    0.4449   -2.2034   -1.9760 H   0  0  0  0  0  0  0  0  0  0  0  0
  1 12  1  0  0  0  0
  1 57  1  0  0  0  0
  2 16  1  0  0  0  0
  2 64  1  0  0  0  0
  3 21  1  0  0  0  0
  3 65  1  0  0  0  0
  4  5  1  0  0  0  0
  4  6  1  0  0  0  0
  4 15  1  0  0  0  0
  4 24  1  0  0  0  0
  5  8  1  0  0  0  0
  5 25  1  0  0  0  0
  5 26  1  0  0  0  0
  6 10  1  0  0  0  0
  6 27  1  0  0  0  0
  6 28  1  0  0  0  0
  7  9  1  0  0  0  0
  7 13  1  0  0  0  0
  7 17  1  0  0  0  0
  7 29  1  0  0  0  0
  8  9  1  0  0  0  0
  8 30  1  0  0  0  0
  8 31  1  0  0  0  0
  9 32  1  0  0  0  0
  9 33  1  0  0  0  0
 10 11  1  0  0  0  0
 10 34  1  0  0  0  0
 10 35  1  0  0  0  0
 11 12  1  0  0  0  0
 11 36  1  0  0  0  0
 11 37  1  0  0  0  0
 12 16  1  0  0  0  0
 12 19  1  0  0  0  0
 13 14  1  0  0  0  0
 13 38  1  0  0  0  0
 13 39  1  0  0  0  0
 14 18  1  0  0  0  0
 14 40  1  0  0  0  0
 14 41  1  0  0  0  0
 15 42  1  0  0  0  0
 15 43  1  0  0  0  0
 15 44  1  0  0  0  0
 16 21  1  0  0  0  0
 16 45  1  0  0  0  0
 17 46  1  0  0  0  0
 17 47  1  0  0  0  0
 17 48  1  0  0  0  0
 18 20  1  0  0  0  0
 18 49  1  0  0  0  0
 18 50  1  0  0  0  0
 19 51  1  0  0  0  0
 19 52  1  0  0  0  0
 19 53  1  0  0  0  0
 20 22  1  0  0  0  0
 20 23  1  0  0  0  0
 20 54  1  0  0  0  0
 21 55  1  0  0  0  0
 21 56  1  0  0  0  0
 22 58  1  0  0  0  0
 22 59  1  0  0  0  0
 22 60  1  0  0  0  0
 23 61  1  0  0  0  0
 23 62  1  0  0  0  0
 23 63  1  0  0  0  0
M  END
> <PUBCHEM_COMPOUND_CID>
3018525

> <PUBCHEM_CONFORMER_RMSD>
1.6

> <PUBCHEM_CONFORMER_DIVERSEORDER>
3
6
46
5
28
21
69
33
9
68
50
20
27
53
54
42
47
31
77
59
38
65
11
14
63
25
55
37
83
67
7
74
76
58
24
18
62
43
29
79
56
49
52
78
57
4
13
23
71
36
40
66
8
26
12
81
48
82
80
39
64
51
15
16
17
45
75
73
30
60
19
32
70
34
44
72
41
1
35
22
10
61
2

> <PUBCHEM_MMFF94_PARTIAL_CHARGES>
9
1 -0.68
12 0.28
16 0.28
2 -0.68
21 0.28
3 -0.68
57 0.4
64 0.4
65 0.4

> <PUBCHEM_EFFECTIVE_ROTOR_COUNT>
14

> <PUBCHEM_PHARMACOPHORE_FEATURES>
9
1 1 acceptor
1 1 donor
1 15 hydrophobe
1 17 hydrophobe
1 2 acceptor
1 2 donor
1 3 acceptor
1 3 donor
3 20 22 23 hydrophobe

> <PUBCHEM_HEAVY_ATOM_COUNT>
23

> <PUBCHEM_ATOM_DEF_STEREO_COUNT>
0

> <PUBCHEM_ATOM_UDEF_STEREO_COUNT>
4

> <PUBCHEM_BOND_DEF_STEREO_COUNT>
0

> <PUBCHEM_BOND_UDEF_STEREO_COUNT>
0

> <PUBCHEM_ISOTOPIC_ATOM_COUNT>
0

> <PUBCHEM_COMPONENT_COUNT>
1

> <PUBCHEM_CACTVS_TAUTO_COUNT>
1

> <PUBCHEM_CONFORMER_ID>
002E0F1D00000003

> <PUBCHEM_MMFF94_ENERGY>
39.2731

> <PUBCHEM_FEATURE_SELFOVERLAP>
45.683

> <PUBCHEM_SHAPE_FINGERPRINT>
11427363 43 17763978615975414511
12100795 323 17766273176794877334
12422481 6 18053691100159126385
12553582 1 18126287673225832868
12788726 201 18272099300495888537
14117953 113 17184749091709233292
15403338 16 18334857242767012951
15537594 2 18197516209731687173
19026451 147 18054489572743846182
19930381 70 18047479099373848115
20531524 4 14735353681185758066
21315764 21 17897694704769489839
235170 7 17024020647798593933
23598288 3 18341619183052630093
238918 7 16612775407830937542
4283 87 18269558402111895724
463206 1 18194404626200565978

> <PUBCHEM_SHAPE_MULTIPOLES>
455.72
9.04
6.1
1.71
2.81
2.27
-0.11
-3.58
-0.06
-0.61
0.61
0.04
-1.01
-3.55

> <PUBCHEM_SHAPE_SELFOVERLAP>
845.649

> <PUBCHEM_SHAPE_VOLUME>
287.6

> <PUBCHEM_COORDINATE_TYPE>
2
5
10

$$$$
