3062370
  -OEChem-03052615073D

 25 25  0     1  0  0  0  0  0999 V2000
    2.6182   -1.9819    0.4627 O   0  0  0  0  0  0  0  0  0  0  0  0
   -0.6800    2.7204    0.6936 O   0  0  0  0  0  0  0  0  0  0  0  0
   -3.2646   -0.9572    0.8547 O   0  0  0  0  0  0  0  0  0  0  0  0
   -0.5172   -0.1846    0.4898 C   0  0  1  0  0  0  0  0  0  0  0  0
    0.2661   -1.4977    0.6252 C   0  0  0  0  0  0  0  0  0  0  0  0
    1.5541   -1.3024   -0.1810 C   0  0  1  0  0  0  0  0  0  0  0  0
    1.7326    0.1915   -0.1621 C   0  0  0  0  0  0  0  0  0  0  0  0
    0.5900    0.7895    0.2074 C   0  0  0  0  0  0  0  0  0  0  0  0
   -1.5320   -0.2322   -0.6104 C   0  0  0  0  0  0  0  0  0  0  0  0
    3.0324    0.7982   -0.5659 C   0  0  0  0  0  0  0  0  0  0  0  0
    0.3918    2.2274    0.3522 C   0  0  0  0  0  0  0  0  0  0  0  0
   -2.9159   -0.6501   -0.2791 C   0  0  0  0  0  0  0  0  0  0  0  0
   -1.2754    0.0791   -1.8869 C   0  0  0  0  0  0  0  0  0  0  0  0
   -0.9931    0.0617    1.4466 H   0  0  0  0  0  0  0  0  0  0  0  0
    0.4952   -1.6869    1.6835 H   0  0  0  0  0  0  0  0  0  0  0  0
   -0.2914   -2.3743    0.2745 H   0  0  0  0  0  0  0  0  0  0  0  0
    1.4578   -1.6735   -1.2066 H   0  0  0  0  0  0  0  0  0  0  0  0
    2.9972    1.8878   -0.6310 H   0  0  0  0  0  0  0  0  0  0  0  0
    3.3294    0.4244   -1.5514 H   0  0  0  0  0  0  0  0  0  0  0  0
    3.8149    0.5329    0.1519 H   0  0  0  0  0  0  0  0  0  0  0  0
    1.2597    2.8697    0.1426 H   0  0  0  0  0  0  0  0  0  0  0  0
    2.7654   -1.5707    1.3317 H   0  0  0  0  0  0  0  0  0  0  0  0
   -3.6294   -0.6711   -1.1202 H   0  0  0  0  0  0  0  0  0  0  0  0
   -0.2969    0.3839   -2.2390 H   0  0  0  0  0  0  0  0  0  0  0  0
   -2.0491    0.0289   -2.6477 H   0  0  0  0  0  0  0  0  0  0  0  0
  1  6  1  0  0  0  0
  1 22  1  0  0  0  0
  2 11  2  0  0  0  0
  3 12  2  0  0  0  0
  4  5  1  0  0  0  0
  4  8  1  0  0  0  0
  4  9  1  0  0  0  0
  4 14  1  0  0  0  0
  5  6  1  0  0  0  0
  5 15  1  0  0  0  0
  5 16  1  0  0  0  0
  6  7  1  0  0  0  0
  6 17  1  0  0  0  0
  7  8  2  0  0  0  0
  7 10  1  0  0  0  0
  8 11  1  0  0  0  0
  9 12  1  0  0  0  0
  9 13  2  0  0  0  0
 10 18  1  0  0  0  0
 10 19  1  0  0  0  0
 10 20  1  0  0  0  0
 11 21  1  0  0  0  0
 12 23  1  0  0  0  0
 13 24  1  0  0  0  0
 13 25  1  0  0  0  0
M  END
> <PUBCHEM_COMPOUND_CID>
3062370

> <PUBCHEM_CONFORMER_RMSD>
0.6

> <PUBCHEM_CONFORMER_DIVERSEORDER>
1
7
5
14
11
8
6
10
15
12
4
9
3
2
13

> <PUBCHEM_MMFF94_PARTIAL_CHARGES>
17
1 -0.68
10 0.14
11 0.5
12 0.5
13 -0.3
2 -0.57
21 0.06
22 0.4
23 0.06
24 0.15
25 0.15
3 -0.57
4 0.28
6 0.42
7 -0.28
8 -0.12
9 -0.12

> <PUBCHEM_EFFECTIVE_ROTOR_COUNT>
3.6

> <PUBCHEM_PHARMACOPHORE_FEATURES>
6
1 1 acceptor
1 1 donor
1 13 hydrophobe
1 2 acceptor
1 3 acceptor
5 4 5 6 7 8 rings

> <PUBCHEM_HEAVY_ATOM_COUNT>
13

> <PUBCHEM_ATOM_DEF_STEREO_COUNT>
2

> <PUBCHEM_ATOM_UDEF_STEREO_COUNT>
0

> <PUBCHEM_BOND_DEF_STEREO_COUNT>
0

> <PUBCHEM_BOND_UDEF_STEREO_COUNT>
0

> <PUBCHEM_ISOTOPIC_ATOM_COUNT>
0

> <PUBCHEM_COMPONENT_COUNT>
1

> <PUBCHEM_CACTVS_TAUTO_COUNT>
1

> <PUBCHEM_CONFORMER_ID>
002EBA6200000001

> <PUBCHEM_MMFF94_ENERGY>
21.4875

> <PUBCHEM_FEATURE_SELFOVERLAP>
30.446

> <PUBCHEM_SHAPE_FINGERPRINT>
10353120 184 18342468070364066372
12423570 1 15665048740054013975
14617773 55 18270964514264501616
14817 1 15652059874193071773
15490181 8 16975317960719674392
15501101 241 18115031938801841967
15557651 10 17897150536586772741
15906896 17 17695902237820249461
16945 1 18266730458083715671
17844478 74 17894352198200992535
20588541 1 18115312322408531562
20871998 184 17771900532981745118
228727 97 18341066171964677068
23419403 2 15956587065915907472
2748010 2 18339913814716230748
353137 74 18409450280400496108
5084963 1 17386293086332095486
5255222 1 18117267275541768503
528886 8 18271525415555296442
568465 68 17971209246145576323
68250623 7 18125175839389294208
81228 2 17836630942729840040

> <PUBCHEM_SHAPE_MULTIPOLES>
249.93
3.96
2.19
1.1
0.98
1.04
0.44
-1.29
0.19
-0.82
-0.72
0.48
0.05
-0.09

> <PUBCHEM_SHAPE_SELFOVERLAP>
514.696

> <PUBCHEM_SHAPE_VOLUME>
145.5

> <PUBCHEM_COORDINATE_TYPE>
2
5
10

$$$$
