10931589
  -OEChem-02172602513D

 23 22  0     1  0  0  0  0  0999 V2000
    0.7585   -1.8524   -0.3976 F   0  0  0  0  0  0  0  0  0  0  0  0
   -1.6331    0.7504   -0.3951 O   0  0  0  0  0  0  0  0  0  0  0  0
   -1.6847   -1.3721    0.5072 O   0  0  0  0  0  0  0  0  0  0  0  0
    1.3113    0.3962    0.0705 C   0  0  0  0  0  0  0  0  0  0  0  0
    0.3107   -0.5757   -0.6002 C   0  0  2  0  0  0  0  0  0  0  0  0
    0.9450    1.8652   -0.1982 C   0  0  0  0  0  0  0  0  0  0  0  0
    2.7123    0.1323   -0.5173 C   0  0  0  0  0  0  0  0  0  0  0  0
    1.3721    0.1593    1.5897 C   0  0  0  0  0  0  0  0  0  0  0  0
   -1.1089   -0.4694   -0.0867 C   0  0  0  0  0  0  0  0  0  0  0  0
   -2.9832    0.9662    0.0276 C   0  0  0  0  0  0  0  0  0  0  0  0
    0.2845   -0.4302   -1.6863 H   0  0  0  0  0  0  0  0  0  0  0  0
    1.7760    2.5279    0.0725 H   0  0  0  0  0  0  0  0  0  0  0  0
    0.7261    2.0351   -1.2580 H   0  0  0  0  0  0  0  0  0  0  0  0
    0.0889    2.1985    0.3960 H   0  0  0  0  0  0  0  0  0  0  0  0
    2.7213    0.2956   -1.6009 H   0  0  0  0  0  0  0  0  0  0  0  0
    3.4623    0.7977   -0.0745 H   0  0  0  0  0  0  0  0  0  0  0  0
    3.0369   -0.8976   -0.3312 H   0  0  0  0  0  0  0  0  0  0  0  0
    2.1209    0.8072    2.0597 H   0  0  0  0  0  0  0  0  0  0  0  0
    0.4101    0.3700    2.0695 H   0  0  0  0  0  0  0  0  0  0  0  0
    1.6401   -0.8780    1.8191 H   0  0  0  0  0  0  0  0  0  0  0  0
   -3.6503    0.2429   -0.4509 H   0  0  0  0  0  0  0  0  0  0  0  0
   -3.2785    1.9729   -0.2795 H   0  0  0  0  0  0  0  0  0  0  0  0
   -3.0540    0.8967    1.1172 H   0  0  0  0  0  0  0  0  0  0  0  0
  1  5  1  0  0  0  0
  2  9  1  0  0  0  0
  2 10  1  0  0  0  0
  3  9  2  0  0  0  0
  4  5  1  0  0  0  0
  4  6  1  0  0  0  0
  4  7  1  0  0  0  0
  4  8  1  0  0  0  0
  5  9  1  0  0  0  0
  5 11  1  0  0  0  0
  6 12  1  0  0  0  0
  6 13  1  0  0  0  0
  6 14  1  0  0  0  0
  7 15  1  0  0  0  0
  7 16  1  0  0  0  0
  7 17  1  0  0  0  0
  8 18  1  0  0  0  0
  8 19  1  0  0  0  0
  8 20  1  0  0  0  0
 10 21  1  0  0  0  0
 10 22  1  0  0  0  0
 10 23  1  0  0  0  0
M  END
> <PUBCHEM_COMPOUND_CID>
10931589

> <PUBCHEM_CONFORMER_RMSD>
0.6

> <PUBCHEM_CONFORMER_DIVERSEORDER>
1
2
3
4
5

> <PUBCHEM_MMFF94_PARTIAL_CHARGES>
6
1 -0.34
10 0.28
2 -0.43
3 -0.57
5 0.4
9 0.66

> <PUBCHEM_EFFECTIVE_ROTOR_COUNT>
3

> <PUBCHEM_PHARMACOPHORE_FEATURES>
2
1 3 acceptor
4 4 6 7 8 hydrophobe

> <PUBCHEM_HEAVY_ATOM_COUNT>
10

> <PUBCHEM_ATOM_DEF_STEREO_COUNT>
0

> <PUBCHEM_ATOM_UDEF_STEREO_COUNT>
1

> <PUBCHEM_BOND_DEF_STEREO_COUNT>
0

> <PUBCHEM_BOND_UDEF_STEREO_COUNT>
0

> <PUBCHEM_ISOTOPIC_ATOM_COUNT>
0

> <PUBCHEM_COMPONENT_COUNT>
1

> <PUBCHEM_CACTVS_TAUTO_COUNT>
1

> <PUBCHEM_CONFORMER_ID>
00A6CD8500000001

> <PUBCHEM_MMFF94_ENERGY>
20.5138

> <PUBCHEM_FEATURE_SELFOVERLAP>
10.148

> <PUBCHEM_SHAPE_FINGERPRINT>
12423570 1 12685391667966403696
137420 1 14800983255237379718
14648413 74 18337961185060359900
16945 1 18409164381211727684
19973954 147 18265899240310173493
20653085 51 18044679695878239820
207724 885 18334862671204326112
21040471 1 18342168990221158358
21922407 69 16154260744985392421
23235685 24 18411696560917468325
241688 4 17619352004689840473
24536 1 18267007517865752989
2748010 2 18267303320837837805
29004967 10 18341341062714012938
5084963 1 17916590993077151950
528886 8 18411422795565069228
68250623 7 17823994517959251210

> <PUBCHEM_SHAPE_MULTIPOLES>
186.78
3.49
1.58
0.98
1.49
0.02
0.39
-0.82
-0.09
0.13
-0.14
-0.43
0.02
0.14

> <PUBCHEM_SHAPE_SELFOVERLAP>
354.576

> <PUBCHEM_SHAPE_VOLUME>
117.5

> <PUBCHEM_COORDINATE_TYPE>
2
5
10

$$$$
