13917457
  -OEChem-02172602503D

 40 41  0     1  0  0  0  0  0999 V2000
   -0.1423    0.2561   -0.6205 N   0  0  0  0  0  0  0  0  0  0  0  0
   -1.7981   -1.6173    0.5912 N   0  0  0  0  0  0  0  0  0  0  0  0
    2.6939    0.6994    0.7278 C   0  0  2  0  0  0  0  0  0  0  0  0
    2.6374   -0.0524   -0.6234 C   0  0  0  0  0  0  0  0  0  0  0  0
    1.7112   -1.2913   -0.6600 C   0  0  1  0  0  0  0  0  0  0  0  0
    3.5646    1.9713    0.6324 C   0  0  0  0  0  0  0  0  0  0  0  0
    0.2680   -0.9725   -0.3091 C   0  0  0  0  0  0  0  0  0  0  0  0
    3.2426   -0.1913    1.8487 C   0  0  0  0  0  0  0  0  0  0  0  0
    1.7856   -1.9640   -2.0378 C   0  0  0  0  0  0  0  0  0  0  0  0
    3.0705    2.9808   -0.3950 C   0  0  0  0  0  0  0  0  0  0  0  0
   -0.5204   -1.9021    0.2814 C   0  0  0  0  0  0  0  0  0  0  0  0
   -1.4167    0.5607   -0.3188 C   0  0  0  0  0  0  0  0  0  0  0  0
   -2.2553   -0.3881    0.2947 C   0  0  0  0  0  0  0  0  0  0  0  0
   -0.0381   -3.2707    0.6196 C   0  0  0  0  0  0  0  0  0  0  0  0
   -1.9240    1.8245   -0.6113 C   0  0  0  0  0  0  0  0  0  0  0  0
   -3.5700   -0.0377    0.5929 C   0  0  0  0  0  0  0  0  0  0  0  0
   -3.2412    2.1649   -0.3088 C   0  0  0  0  0  0  0  0  0  0  0  0
   -4.0678    1.2297    0.2959 C   0  0  0  0  0  0  0  0  0  0  0  0
    1.6880    1.0187    1.0217 H   0  0  0  0  0  0  0  0  0  0  0  0
    3.6553   -0.3656   -0.8930 H   0  0  0  0  0  0  0  0  0  0  0  0
    2.3171    0.6355   -1.4148 H   0  0  0  0  0  0  0  0  0  0  0  0
    2.1202   -2.0020    0.0658 H   0  0  0  0  0  0  0  0  0  0  0  0
    3.5826    2.4643    1.6127 H   0  0  0  0  0  0  0  0  0  0  0  0
    4.6014    1.7013    0.3972 H   0  0  0  0  0  0  0  0  0  0  0  0
    4.2287   -0.5920    1.5907 H   0  0  0  0  0  0  0  0  0  0  0  0
    2.5736   -1.0325    2.0532 H   0  0  0  0  0  0  0  0  0  0  0  0
    3.3414    0.3735    2.7821 H   0  0  0  0  0  0  0  0  0  0  0  0
    1.4305   -1.2890   -2.8252 H   0  0  0  0  0  0  0  0  0  0  0  0
    2.8179   -2.2427   -2.2757 H   0  0  0  0  0  0  0  0  0  0  0  0
    1.1774   -2.8715   -2.0897 H   0  0  0  0  0  0  0  0  0  0  0  0
    2.0070    3.1983   -0.2554 H   0  0  0  0  0  0  0  0  0  0  0  0
    3.2255    2.6274   -1.4182 H   0  0  0  0  0  0  0  0  0  0  0  0
    3.6242    3.9197   -0.2903 H   0  0  0  0  0  0  0  0  0  0  0  0
    0.3013   -3.8120   -0.2666 H   0  0  0  0  0  0  0  0  0  0  0  0
    0.7667   -3.2299    1.3602 H   0  0  0  0  0  0  0  0  0  0  0  0
   -0.8485   -3.8615    1.0619 H   0  0  0  0  0  0  0  0  0  0  0  0
   -1.2859    2.5680   -1.0853 H   0  0  0  0  0  0  0  0  0  0  0  0
   -4.2295   -0.7617    1.0676 H   0  0  0  0  0  0  0  0  0  0  0  0
   -3.6165    3.1558   -0.5452 H   0  0  0  0  0  0  0  0  0  0  0  0
   -5.0959    1.4821    0.5370 H   0  0  0  0  0  0  0  0  0  0  0  0
  1  7  2  0  0  0  0
  1 12  1  0  0  0  0
  2 11  2  0  0  0  0
  2 13  1  0  0  0  0
  3  4  1  0  0  0  0
  3  6  1  0  0  0  0
  3  8  1  0  0  0  0
  3 19  1  0  0  0  0
  4  5  1  0  0  0  0
  4 20  1  0  0  0  0
  4 21  1  0  0  0  0
  5  7  1  0  0  0  0
  5  9  1  0  0  0  0
  5 22  1  0  0  0  0
  6 10  1  0  0  0  0
  6 23  1  0  0  0  0
  6 24  1  0  0  0  0
  7 11  1  0  0  0  0
  8 25  1  0  0  0  0
  8 26  1  0  0  0  0
  8 27  1  0  0  0  0
  9 28  1  0  0  0  0
  9 29  1  0  0  0  0
  9 30  1  0  0  0  0
 10 31  1  0  0  0  0
 10 32  1  0  0  0  0
 10 33  1  0  0  0  0
 11 14  1  0  0  0  0
 12 13  1  0  0  0  0
 12 15  2  0  0  0  0
 13 16  2  0  0  0  0
 14 34  1  0  0  0  0
 14 35  1  0  0  0  0
 14 36  1  0  0  0  0
 15 17  1  0  0  0  0
 15 37  1  0  0  0  0
 16 18  1  0  0  0  0
 16 38  1  0  0  0  0
 17 18  2  0  0  0  0
 17 39  1  0  0  0  0
 18 40  1  0  0  0  0
M  END
> <PUBCHEM_COMPOUND_CID>
13917457

> <PUBCHEM_CONFORMER_RMSD>
0.6

> <PUBCHEM_CONFORMER_DIVERSEORDER>
1
14
28
17
16
21
19
25
30
9
5
24
26
11
20
8
3
2
7
18
22
27
10
15
29
4
23
13
12
6

> <PUBCHEM_MMFF94_PARTIAL_CHARGES>
16
1 -0.62
11 0.17
12 0.31
13 0.31
14 0.14
15 -0.15
16 -0.15
17 -0.15
18 -0.15
2 -0.62
37 0.15
38 0.15
39 0.15
40 0.15
5 0.14
7 0.17

> <PUBCHEM_EFFECTIVE_ROTOR_COUNT>
4

> <PUBCHEM_PHARMACOPHORE_FEATURES>
8
1 1 acceptor
1 10 hydrophobe
1 2 acceptor
1 8 hydrophobe
1 9 hydrophobe
4 3 4 5 6 hydrophobe
6 1 2 7 11 12 13 rings
6 12 13 15 16 17 18 rings

> <PUBCHEM_HEAVY_ATOM_COUNT>
18

> <PUBCHEM_ATOM_DEF_STEREO_COUNT>
0

> <PUBCHEM_ATOM_UDEF_STEREO_COUNT>
2

> <PUBCHEM_BOND_DEF_STEREO_COUNT>
0

> <PUBCHEM_BOND_UDEF_STEREO_COUNT>
0

> <PUBCHEM_ISOTOPIC_ATOM_COUNT>
0

> <PUBCHEM_COMPONENT_COUNT>
1

> <PUBCHEM_CACTVS_TAUTO_COUNT>
4

> <PUBCHEM_CONFORMER_ID>
00D45D1100000001

> <PUBCHEM_MMFF94_ENERGY>
46.1338

> <PUBCHEM_FEATURE_SELFOVERLAP>
40.836

> <PUBCHEM_SHAPE_FINGERPRINT>
10608611 8 18411141290412960685
10871710 139 17329996209915777092
11221954 11 18412266176739163300
11543360 7 17059760132179653157
11615756 256 18271253750178973145
11759241 127 18272364325984726239
12251169 10 18188198884184932144
12403259 226 18045221531429165839
12403260 363 18337938039560469731
12633257 1 18261659420721139752
13140716 1 18335148578856162337
13294875 104 18120091684906945818
13583140 156 17095509725843108153
14178342 30 18041848303233771195
14787075 74 18271804687757116265
14957384 54 17896297186752016680
16945 1 18335985354064742959
1813 80 15576120841591693442
18186145 218 18128263289746975795
20510252 161 18340213010907236155
21524375 3 18272076232226171442
21731228 192 18336255795396947554
21947302 44 18201441337610047930
23493267 7 16735273363911977555
23526113 38 18053971488092567582
23559900 14 18339930294384471918
2748010 2 18263385684025947935
474 4 18341610369843068121
49207404 50 18336838540965379961
5262128 65 17486506888086799839
6333272 397 18409446977364839209
633830 44 18271526403609102605
7097593 13 18041819780392888746
7364860 26 17977663108997555427
7808743 9 18120660386132994716
81228 2 18119830233178694979
90316 7 17095238086462942189

> <PUBCHEM_SHAPE_MULTIPOLES>
360.47
6.68
3.24
1.27
1.53
0.27
-0.11
-4.99
1.41
-1.11
-0.23
-1.12
0.49
0.86

> <PUBCHEM_SHAPE_SELFOVERLAP>
753.506

> <PUBCHEM_SHAPE_VOLUME>
205.7

> <PUBCHEM_COORDINATE_TYPE>
2
5
10

$$$$
