129315878
  -OEChem-02172602543D

 34 36  0     0  0  0  0  0  0999 V2000
   -6.3387   -0.9043    0.0012 O   0  0  0  0  0  0  0  0  0  0  0  0
   -4.8123   -2.5744    0.0024 O   0  0  0  0  0  0  0  0  0  0  0  0
   -4.1180   -0.3604   -0.0003 N   0  0  0  0  0  0  0  0  0  0  0  0
    1.0831    2.7120    0.0014 N   0  0  0  0  0  0  0  0  0  0  0  0
    4.4357   -2.8021   -0.0014 N   0  0  0  0  0  0  0  0  0  0  0  0
    4.4360    2.4499    0.0016 N   0  0  0  0  0  0  0  0  0  0  0  0
   -2.6802   -0.5902   -0.0008 C   0  0  0  0  0  0  0  0  0  0  0  0
   -2.1139    0.7998   -0.0014 C   0  0  0  0  0  0  0  0  0  0  0  0
   -4.4508    1.0561   -0.0019 C   0  0  0  0  0  0  0  0  0  0  0  0
   -3.1083    1.7028   -0.0020 C   0  0  0  0  0  0  0  0  0  0  0  0
   -0.6994    1.0784   -0.0014 C   0  0  0  0  0  0  0  0  0  0  0  0
    0.2347    0.0485   -0.0008 C   0  0  0  0  0  0  0  0  0  0  0  0
    1.5925    0.3486    0.0009 C   0  0  0  0  0  0  0  0  0  0  0  0
   -5.0595   -1.3725    0.0012 C   0  0  0  0  0  0  0  0  0  0  0  0
   -0.2278    2.3815   -0.0004 C   0  0  0  0  0  0  0  0  0  0  0  0
    2.5622   -0.7274    0.0002 C   0  0  0  0  0  0  0  0  0  0  0  0
    1.9614    1.6841    0.0020 C   0  0  0  0  0  0  0  0  0  0  0  0
    3.0305   -1.2441   -1.2028 C   0  0  0  0  0  0  0  0  0  0  0  0
    3.0295   -1.2470    1.2024 C   0  0  0  0  0  0  0  0  0  0  0  0
    3.9584   -2.2719   -1.1497 C   0  0  0  0  0  0  0  0  0  0  0  0
    3.9576   -2.2744    1.1478 C   0  0  0  0  0  0  0  0  0  0  0  0
    3.3274    2.1068    0.0018 C   0  0  0  0  0  0  0  0  0  0  0  0
   -2.4176   -1.1608   -0.8974 H   0  0  0  0  0  0  0  0  0  0  0  0
   -2.4170   -1.1602    0.8960 H   0  0  0  0  0  0  0  0  0  0  0  0
   -5.0289    1.2992    0.8944 H   0  0  0  0  0  0  0  0  0  0  0  0
   -5.0282    1.2974   -0.8990 H   0  0  0  0  0  0  0  0  0  0  0  0
   -3.0045    2.7779   -0.0026 H   0  0  0  0  0  0  0  0  0  0  0  0
   -0.0782   -0.9933   -0.0016 H   0  0  0  0  0  0  0  0  0  0  0  0
   -0.8794    3.2485   -0.0006 H   0  0  0  0  0  0  0  0  0  0  0  0
    2.6903   -0.8653   -2.1613 H   0  0  0  0  0  0  0  0  0  0  0  0
    2.6884   -0.8703    2.1614 H   0  0  0  0  0  0  0  0  0  0  0  0
   -6.9938   -1.6345    0.0023 H   0  0  0  0  0  0  0  0  0  0  0  0
    4.3550   -2.7095   -2.0599 H   0  0  0  0  0  0  0  0  0  0  0  0
    4.3535   -2.7141    2.0574 H   0  0  0  0  0  0  0  0  0  0  0  0
  1 14  1  0  0  0  0
  1 32  1  0  0  0  0
  2 14  2  0  0  0  0
  3  7  1  0  0  0  0
  3  9  1  0  0  0  0
  3 14  1  0  0  0  0
  4 15  2  0  0  0  0
  4 17  1  0  0  0  0
  5 20  2  0  0  0  0
  5 21  1  0  0  0  0
  6 22  3  0  0  0  0
  7  8  1  0  0  0  0
  7 23  1  0  0  0  0
  7 24  1  0  0  0  0
  8 10  2  0  0  0  0
  8 11  1  0  0  0  0
  9 10  1  0  0  0  0
  9 25  1  0  0  0  0
  9 26  1  0  0  0  0
 10 27  1  0  0  0  0
 11 12  2  0  0  0  0
 11 15  1  0  0  0  0
 12 13  1  0  0  0  0
 12 28  1  0  0  0  0
 13 16  1  0  0  0  0
 13 17  2  0  0  0  0
 15 29  1  0  0  0  0
 16 18  2  0  0  0  0
 16 19  1  0  0  0  0
 17 22  1  0  0  0  0
 18 20  1  0  0  0  0
 18 30  1  0  0  0  0
 19 21  2  0  0  0  0
 19 31  1  0  0  0  0
 20 33  1  0  0  0  0
 21 34  1  0  0  0  0
M  END
> <PUBCHEM_COMPOUND_CID>
129315878

> <PUBCHEM_CONFORMER_RMSD>
0.6

> <PUBCHEM_CONFORMER_DIVERSEORDER>
1
12
11
2
10
6
8
5
9
7
3
4

> <PUBCHEM_MMFF94_PARTIAL_CHARGES>
28
1 -0.65
10 -0.29
11 0.03
12 -0.15
14 0.78
15 0.16
17 0.38
18 -0.15
19 -0.15
2 -0.57
20 0.16
21 0.16
22 0.48
27 0.15
28 0.15
29 0.15
3 -0.66
30 0.15
31 0.15
32 0.5
33 0.15
34 0.15
4 -0.62
5 -0.62
6 -0.56
7 0.44
8 -0.17
9 0.44

> <PUBCHEM_EFFECTIVE_ROTOR_COUNT>
3.6

> <PUBCHEM_PHARMACOPHORE_FEATURES>
8
1 2 acceptor
1 4 acceptor
1 5 acceptor
1 6 acceptor
3 1 2 14 anion
5 3 7 8 9 10 rings
6 4 11 12 13 15 17 rings
6 5 16 18 19 20 21 rings

> <PUBCHEM_HEAVY_ATOM_COUNT>
22

> <PUBCHEM_ATOM_DEF_STEREO_COUNT>
0

> <PUBCHEM_ATOM_UDEF_STEREO_COUNT>
0

> <PUBCHEM_BOND_DEF_STEREO_COUNT>
0

> <PUBCHEM_BOND_UDEF_STEREO_COUNT>
0

> <PUBCHEM_ISOTOPIC_ATOM_COUNT>
0

> <PUBCHEM_COMPONENT_COUNT>
1

> <PUBCHEM_CACTVS_TAUTO_COUNT>
1

> <PUBCHEM_CONFORMER_ID>
07B5342600000001

> <PUBCHEM_MMFF94_ENERGY>
57.5441

> <PUBCHEM_FEATURE_SELFOVERLAP>
40.598

> <PUBCHEM_SHAPE_FINGERPRINT>
108634 29 17969511587339602010
11405975 8 18340207388948442161
11963148 33 18192142922388325898
12107183 9 18125449614096792497
12293681 25 17896056479736333562
12363563 72 18338805506948037622
12553582 1 18192151490720629890
12633257 1 18269000791150904985
12916754 54 18411703154003465105
13009979 54 17988371355703442168
13073987 5 18412548726038161369
13140716 1 18269552749798174040
13167823 11 18410854356780639083
13533116 47 18342174505655459875
13740256 8 18339081488872586358
13955234 65 18270118049251544512
14178342 30 17771915921691291602
14251740 57 18272933825579020926
14341114 176 18410863178996841017
14347424 109 18343872108785816913
14863182 85 18337396066660072964
15196674 1 18410856555904238309
15342816 4 18263085435757638582
15352361 1 18339079294017892359
17492 89 18412263952130986679
1813 80 17385443237185414309
193927 3 18341338816409564143
20281475 54 18411141298960866049
20403669 9 18411984633344007247
20567600 70 18408316666864395370
20645477 70 18409446990033229324
20691752 17 17385727967478400392
21065198 48 18343869918157576633
21267235 1 18411707581671369222
21279426 13 18334005070174217453
21307412 95 17839748058453126551
221490 88 18409173220264939915
22393880 68 18040989593036632415
23424784 1240 18117853307230291987
23559900 14 18339917121714656048
239999 70 18412265034599758958
25222932 49 17984141736577541583
3004659 81 18261394420832839847
312423 11 18412273817459700161
335352 9 18266458716336770109
33824 294 18338799030469794576
3421961 26 18412824681395931226
4073 2 18116156739239034403
44062 13 18263078834651055717
465052 167 18342462512676541399
5104073 3 18343305855818032777
59755656 215 18336832004257335332
7364860 26 18341895178294649004
7970288 3 18265613169750877658
8863177 126 17969523635408435891
960060 61 17748835098176402407
9709674 26 18334861670782823475

> <PUBCHEM_SHAPE_MULTIPOLES>
421.09
11.83
3.35
0.86
12.48
0.21
0
-7.8
0
-2.71
0
-0.96
-0.44
0.01

> <PUBCHEM_SHAPE_SELFOVERLAP>
926.435

> <PUBCHEM_SHAPE_VOLUME>
224.1

> <PUBCHEM_COORDINATE_TYPE>
2
5
10

$$$$
