11252119
  -OEChem-02172602533D

 22 22  0     0  0  0  0  0  0999 V2000
    2.8802    0.0428   -0.5368 O   0  0  0  0  0  0  0  0  0  0  0  0
    1.4372   -0.2604    1.2359 O   0  0  0  0  0  0  0  0  0  0  0  0
   -1.3462   -1.3916   -0.3111 N   0  0  0  0  0  0  0  0  0  0  0  0
   -0.7810   -0.1678   -0.4551 C   0  0  0  0  0  0  0  0  0  0  0  0
   -1.6335    0.7890   -0.0043 C   0  0  0  0  0  0  0  0  0  0  0  0
    0.5980   -0.0409   -1.0437 C   0  0  0  0  0  0  0  0  0  0  0  0
   -2.7945    0.1126    0.4449 C   0  0  0  0  0  0  0  0  0  0  0  0
   -2.5895   -1.2345    0.2439 C   0  0  0  0  0  0  0  0  0  0  0  0
   -1.4126    2.2486    0.0218 C   0  0  0  0  0  0  0  0  0  0  0  0
    1.6495   -0.1045    0.0411 C   0  0  0  0  0  0  0  0  0  0  0  0
    3.9923    0.0066    0.3633 C   0  0  0  0  0  0  0  0  0  0  0  0
    0.7791   -0.8521   -1.7581 H   0  0  0  0  0  0  0  0  0  0  0  0
    0.6900    0.9167   -1.5677 H   0  0  0  0  0  0  0  0  0  0  0  0
   -0.9286   -2.2768   -0.5653 H   0  0  0  0  0  0  0  0  0  0  0  0
   -3.6857    0.5536    0.8700 H   0  0  0  0  0  0  0  0  0  0  0  0
   -3.2152   -2.0924    0.4456 H   0  0  0  0  0  0  0  0  0  0  0  0
   -0.4942    2.4920    0.5661 H   0  0  0  0  0  0  0  0  0  0  0  0
   -1.3251    2.6428   -0.9958 H   0  0  0  0  0  0  0  0  0  0  0  0
   -2.2405    2.7695    0.5138 H   0  0  0  0  0  0  0  0  0  0  0  0
    4.0346   -0.9600    0.8742 H   0  0  0  0  0  0  0  0  0  0  0  0
    3.9206    0.8243    1.0869 H   0  0  0  0  0  0  0  0  0  0  0  0
    4.9072    0.1348   -0.2213 H   0  0  0  0  0  0  0  0  0  0  0  0
  1 10  1  0  0  0  0
  1 11  1  0  0  0  0
  2 10  2  0  0  0  0
  3  4  1  0  0  0  0
  3  8  1  0  0  0  0
  3 14  1  0  0  0  0
  4  5  2  0  0  0  0
  4  6  1  0  0  0  0
  5  7  1  0  0  0  0
  5  9  1  0  0  0  0
  6 10  1  0  0  0  0
  6 12  1  0  0  0  0
  6 13  1  0  0  0  0
  7  8  2  0  0  0  0
  7 15  1  0  0  0  0
  8 16  1  0  0  0  0
  9 17  1  0  0  0  0
  9 18  1  0  0  0  0
  9 19  1  0  0  0  0
 11 20  1  0  0  0  0
 11 21  1  0  0  0  0
 11 22  1  0  0  0  0
M  END
> <PUBCHEM_COMPOUND_CID>
11252119

> <PUBCHEM_CONFORMER_RMSD>
0.6

> <PUBCHEM_CONFORMER_DIVERSEORDER>
2
11
13
16
5
4
7
12
1
15
10
14
9
8
3
6

> <PUBCHEM_MMFF94_PARTIAL_CHARGES>
14
1 -0.43
10 0.66
11 0.28
14 0.27
15 0.15
16 0.15
2 -0.57
3 0.03
4 -0.33
5 -0.18
6 0.24
7 -0.15
8 -0.3
9 0.18

> <PUBCHEM_EFFECTIVE_ROTOR_COUNT>
3

> <PUBCHEM_PHARMACOPHORE_FEATURES>
4
1 2 acceptor
1 3 cation
1 3 donor
5 3 4 5 7 8 rings

> <PUBCHEM_HEAVY_ATOM_COUNT>
11

> <PUBCHEM_ATOM_DEF_STEREO_COUNT>
0

> <PUBCHEM_ATOM_UDEF_STEREO_COUNT>
0

> <PUBCHEM_BOND_DEF_STEREO_COUNT>
0

> <PUBCHEM_BOND_UDEF_STEREO_COUNT>
0

> <PUBCHEM_ISOTOPIC_ATOM_COUNT>
0

> <PUBCHEM_COMPONENT_COUNT>
1

> <PUBCHEM_CACTVS_TAUTO_COUNT>
1

> <PUBCHEM_CONFORMER_ID>
00ABB19700000002

> <PUBCHEM_MMFF94_ENERGY>
9.3228

> <PUBCHEM_FEATURE_SELFOVERLAP>
20.297

> <PUBCHEM_SHAPE_FINGERPRINT>
10857977 72 18271526493760853747
12932764 1 17632568353941995750
13024252 1 17821444656068435759
13839132 238 18055360140917999021
16945 1 18410580578116148247
17844478 74 17988931084383554504
20645464 45 17775288252665847638
20871998 184 18272656778850729767
23236772 104 17894353271705543753
23402539 116 18272360971915896287
369184 2 18335136492670439663
5084963 1 17775564260207134663
75552 356 18408324388777438045

> <PUBCHEM_SHAPE_MULTIPOLES>
209.66
5.25
1.45
0.89
4.97
0.68
0.02
-0.42
0.91
-1.34
0.01
0.24
-0.05
-0.02

> <PUBCHEM_SHAPE_SELFOVERLAP>
428.114

> <PUBCHEM_SHAPE_VOLUME>
123.8

> <PUBCHEM_COORDINATE_TYPE>
2
5
10

$$$$
