101666686
  -OEChem-02172602463D

 77 82  0     1  0  0  0  0  0999 V2000
   -2.8957   -0.5007   -1.9449 O   0  0  0  0  0  0  0  0  0  0  0  0
   -1.8540   -3.3796   -0.2699 O   0  0  0  0  0  0  0  0  0  0  0  0
    4.0846   -1.9579    0.4674 O   0  0  0  0  0  0  0  0  0  0  0  0
   -3.2730    2.6668   -1.9415 O   0  0  0  0  0  0  0  0  0  0  0  0
   -2.2656   -2.4784   -2.9104 O   0  0  0  0  0  0  0  0  0  0  0  0
    6.7130   -0.8590   -0.0990 O   0  0  0  0  0  0  0  0  0  0  0  0
    2.6614   -3.7087    0.0471 O   0  0  0  0  0  0  0  0  0  0  0  0
   -4.1217    0.9563   -0.4056 C   0  0  2  0  0  0  0  0  0  0  0  0
   -4.4019    1.2375    1.0953 C   0  0  2  0  0  0  0  0  0  0  0  0
   -2.8660    0.0809   -0.6233 C   0  0  1  0  0  0  0  0  0  0  0  0
   -2.5813   -1.0950    0.3228 C   0  0  2  0  0  0  0  0  0  0  0  0
   -5.1683    0.2017    1.9421 C   0  0  2  0  0  0  0  0  0  0  0  0
   -1.7324   -2.0086   -0.5812 C   0  0  1  0  0  0  0  0  0  0  0  0
   -3.8181   -1.7930    0.9197 C   0  0  0  0  0  0  0  0  0  0  0  0
   -5.0514    2.6297    1.1113 C   0  0  0  0  0  0  0  0  0  0  0  0
   -4.3686   -1.0903    2.1643 C   0  0  0  0  0  0  0  0  0  0  0  0
   -3.8054    2.3885   -0.8720 C   0  0  0  0  0  0  0  0  0  0  0  0
   -4.2185    3.4361    0.1285 C   0  0  0  0  0  0  0  0  0  0  0  0
    4.6022    0.3794   -0.0764 C   0  0  2  0  0  0  0  0  0  0  0  0
    4.4696    1.8504    0.4189 C   0  0  2  0  0  0  0  0  0  0  0  0
   -5.3255    0.5294   -1.2612 C   0  0  0  0  0  0  0  0  0  0  0  0
   -0.2492   -1.6329   -0.5782 C   0  0  0  0  0  0  0  0  0  0  0  0
    3.9388   -0.6003    0.9174 C   0  0  1  0  0  0  0  0  0  0  0  0
   -2.3136   -1.7344   -1.9433 C   0  0  0  0  0  0  0  0  0  0  0  0
    3.1649    2.6416    0.1542 C   0  0  2  0  0  0  0  0  0  0  0  0
   -6.6066   -0.1203    1.5262 C   0  0  0  0  0  0  0  0  0  0  0  0
    5.7483    2.5365   -0.0835 C   0  0  0  0  0  0  0  0  0  0  0  0
    2.4681   -0.4510    1.0754 C   0  0  0  0  0  0  0  0  0  0  0  0
    0.3906   -1.9345    0.7719 C   0  0  0  0  0  0  0  0  0  0  0  0
    6.1264    0.2138   -0.0083 C   0  0  0  0  0  0  0  0  0  0  0  0
    1.8482    1.8704    0.3886 C   0  0  0  0  0  0  0  0  0  0  0  0
    6.8467    1.5219    0.1928 C   0  0  0  0  0  0  0  0  0  0  0  0
    1.8312   -1.5873    0.7815 C   0  0  0  0  0  0  0  0  0  0  0  0
    1.8682    0.8445    1.5205 C   0  0  0  0  0  0  0  0  0  0  0  0
    4.1991    0.1444   -1.5373 C   0  0  0  0  0  0  0  0  0  0  0  0
    3.0922    3.3586   -1.2002 C   0  0  0  0  0  0  0  0  0  0  0  0
    2.8636   -2.5565    0.3901 C   0  0  0  0  0  0  0  0  0  0  0  0
   -3.4252    1.3668    1.5911 H   0  0  0  0  0  0  0  0  0  0  0  0
   -1.9832    0.7359   -0.6113 H   0  0  0  0  0  0  0  0  0  0  0  0
   -1.9992   -0.7181    1.1688 H   0  0  0  0  0  0  0  0  0  0  0  0
   -5.2670    0.6562    2.9399 H   0  0  0  0  0  0  0  0  0  0  0  0
   -3.5258   -2.7914    1.2674 H   0  0  0  0  0  0  0  0  0  0  0  0
   -4.5964   -1.9569    0.1703 H   0  0  0  0  0  0  0  0  0  0  0  0
   -5.0363    3.0802    2.1091 H   0  0  0  0  0  0  0  0  0  0  0  0
   -6.0928    2.6018    0.7754 H   0  0  0  0  0  0  0  0  0  0  0  0
   -5.0027   -1.8044    2.7070 H   0  0  0  0  0  0  0  0  0  0  0  0
   -3.5346   -0.8738    2.8453 H   0  0  0  0  0  0  0  0  0  0  0  0
   -3.3225    3.8450    0.6041 H   0  0  0  0  0  0  0  0  0  0  0  0
   -4.8022    4.2283   -0.3452 H   0  0  0  0  0  0  0  0  0  0  0  0
    4.5712    1.8233    1.5169 H   0  0  0  0  0  0  0  0  0  0  0  0
   -5.5530   -0.5329   -1.1586 H   0  0  0  0  0  0  0  0  0  0  0  0
   -5.1389    0.7059   -2.3281 H   0  0  0  0  0  0  0  0  0  0  0  0
   -6.2268    1.1012   -1.0179 H   0  0  0  0  0  0  0  0  0  0  0  0
   -0.1055   -0.5789   -0.8454 H   0  0  0  0  0  0  0  0  0  0  0  0
    0.2722   -2.2137   -1.3522 H   0  0  0  0  0  0  0  0  0  0  0  0
    4.4273   -0.5384    1.8986 H   0  0  0  0  0  0  0  0  0  0  0  0
    3.1709    3.4507    0.9008 H   0  0  0  0  0  0  0  0  0  0  0  0
   -7.1876    0.7806    1.3149 H   0  0  0  0  0  0  0  0  0  0  0  0
   -7.1200   -0.6404    2.3441 H   0  0  0  0  0  0  0  0  0  0  0  0
   -6.6593   -0.7840    0.6619 H   0  0  0  0  0  0  0  0  0  0  0  0
    5.7062    2.7365   -1.1598 H   0  0  0  0  0  0  0  0  0  0  0  0
    5.9389    3.4843    0.4300 H   0  0  0  0  0  0  0  0  0  0  0  0
    0.2764   -2.9954    1.0257 H   0  0  0  0  0  0  0  0  0  0  0  0
   -0.1032   -1.3902    1.5816 H   0  0  0  0  0  0  0  0  0  0  0  0
    1.5190    1.3888   -0.5407 H   0  0  0  0  0  0  0  0  0  0  0  0
    1.0701    2.6115    0.6186 H   0  0  0  0  0  0  0  0  0  0  0  0
    7.1951    1.5799    1.2279 H   0  0  0  0  0  0  0  0  0  0  0  0
    7.6813    1.6262   -0.5038 H   0  0  0  0  0  0  0  0  0  0  0  0
    0.8337    0.6781    1.8436 H   0  0  0  0  0  0  0  0  0  0  0  0
    2.3945    1.2315    2.4004 H   0  0  0  0  0  0  0  0  0  0  0  0
    3.1223    0.2468   -1.6919 H   0  0  0  0  0  0  0  0  0  0  0  0
    4.4809   -0.8617   -1.8696 H   0  0  0  0  0  0  0  0  0  0  0  0
    4.7060    0.8406   -2.2141 H   0  0  0  0  0  0  0  0  0  0  0  0
   -1.3022   -3.8847   -0.8912 H   0  0  0  0  0  0  0  0  0  0  0  0
    3.1497    2.6607   -2.0389 H   0  0  0  0  0  0  0  0  0  0  0  0
    3.8943    4.0953   -1.3068 H   0  0  0  0  0  0  0  0  0  0  0  0
    2.1481    3.9078   -1.2929 H   0  0  0  0  0  0  0  0  0  0  0  0
  1 10  1  0  0  0  0
  1 24  1  0  0  0  0
  2 13  1  0  0  0  0
  2 74  1  0  0  0  0
  3 23  1  0  0  0  0
  3 37  1  0  0  0  0
  4 17  2  0  0  0  0
  5 24  2  0  0  0  0
  6 30  2  0  0  0  0
  7 37  2  0  0  0  0
  8  9  1  0  0  0  0
  8 10  1  0  0  0  0
  8 17  1  0  0  0  0
  8 21  1  0  0  0  0
  9 12  1  0  0  0  0
  9 15  1  0  0  0  0
  9 38  1  0  0  0  0
 10 11  1  0  0  0  0
 10 39  1  0  0  0  0
 11 13  1  0  0  0  0
 11 14  1  0  0  0  0
 11 40  1  0  0  0  0
 12 16  1  0  0  0  0
 12 26  1  0  0  0  0
 12 41  1  0  0  0  0
 13 22  1  0  0  0  0
 13 24  1  0  0  0  0
 14 16  1  0  0  0  0
 14 42  1  0  0  0  0
 14 43  1  0  0  0  0
 15 18  1  0  0  0  0
 15 44  1  0  0  0  0
 15 45  1  0  0  0  0
 16 46  1  0  0  0  0
 16 47  1  0  0  0  0
 17 18  1  0  0  0  0
 18 48  1  0  0  0  0
 18 49  1  0  0  0  0
 19 20  1  0  0  0  0
 19 23  1  0  0  0  0
 19 30  1  0  0  0  0
 19 35  1  0  0  0  0
 20 25  1  0  0  0  0
 20 27  1  0  0  0  0
 20 50  1  0  0  0  0
 21 51  1  0  0  0  0
 21 52  1  0  0  0  0
 21 53  1  0  0  0  0
 22 29  1  0  0  0  0
 22 54  1  0  0  0  0
 22 55  1  0  0  0  0
 23 28  1  0  0  0  0
 23 56  1  0  0  0  0
 25 31  1  0  0  0  0
 25 36  1  0  0  0  0
 25 57  1  0  0  0  0
 26 58  1  0  0  0  0
 26 59  1  0  0  0  0
 26 60  1  0  0  0  0
 27 32  1  0  0  0  0
 27 61  1  0  0  0  0
 27 62  1  0  0  0  0
 28 33  2  0  0  0  0
 28 34  1  0  0  0  0
 29 33  1  0  0  0  0
 29 63  1  0  0  0  0
 29 64  1  0  0  0  0
 30 32  1  0  0  0  0
 31 34  1  0  0  0  0
 31 65  1  0  0  0  0
 31 66  1  0  0  0  0
 32 67  1  0  0  0  0
 32 68  1  0  0  0  0
 33 37  1  0  0  0  0
 34 69  1  0  0  0  0
 34 70  1  0  0  0  0
 35 71  1  0  0  0  0
 35 72  1  0  0  0  0
 35 73  1  0  0  0  0
 36 75  1  0  0  0  0
 36 76  1  0  0  0  0
 36 77  1  0  0  0  0
M  END
> <PUBCHEM_COMPOUND_CID>
101666686

> <PUBCHEM_CONFORMER_RMSD>
0.8

> <PUBCHEM_CONFORMER_DIVERSEORDER>
2
50
32
26
47
15
21
42
10
7
40
17
46
6
33
48
13
19
44
49
5
27
1
31
28
14
24
22
38
11
43
30
8
39
20
16
45
35
25
4
29
3
34
36
37
18
41
23
9
12

> <PUBCHEM_MMFF94_PARTIAL_CHARGES>
23
1 -0.43
10 0.28
13 0.34
17 0.45
18 0.06
19 0.06
2 -0.68
23 0.42
24 0.66
28 -0.28
29 0.14
3 -0.43
30 0.45
32 0.06
33 -0.12
34 0.14
37 0.71
4 -0.57
5 -0.57
6 -0.57
7 -0.57
74 0.4
8 0.06

> <PUBCHEM_EFFECTIVE_ROTOR_COUNT>
5.6

> <PUBCHEM_PHARMACOPHORE_FEATURES>
12
1 2 acceptor
1 2 donor
1 4 acceptor
1 5 acceptor
1 6 acceptor
1 7 acceptor
5 1 10 11 13 24 rings
5 19 20 27 30 32 rings
5 3 23 28 33 37 rings
5 8 9 15 17 18 rings
7 19 20 23 25 28 31 34 rings
7 8 9 10 11 12 14 16 rings

> <PUBCHEM_HEAVY_ATOM_COUNT>
37

> <PUBCHEM_ATOM_DEF_STEREO_COUNT>
8

> <PUBCHEM_ATOM_UDEF_STEREO_COUNT>
2

> <PUBCHEM_BOND_DEF_STEREO_COUNT>
0

> <PUBCHEM_BOND_UDEF_STEREO_COUNT>
0

> <PUBCHEM_ISOTOPIC_ATOM_COUNT>
0

> <PUBCHEM_COMPONENT_COUNT>
1

> <PUBCHEM_CACTVS_TAUTO_COUNT>
4

> <PUBCHEM_CONFORMER_ID>
060F4F7E00000002

> <PUBCHEM_MMFF94_ENERGY>
105.5057

> <PUBCHEM_FEATURE_SELFOVERLAP>
61.024

> <PUBCHEM_SHAPE_FINGERPRINT>
11135609 201 18336825407045020826
11513181 2 17915739782251537557
12107698 1 18260268564218354097
12128747 34 18041567923205046595
12422481 6 18116970270765045968
12788726 201 17345759568609685432
12925494 130 18190177889357137749
13627175 23 18202566151491720553
13690498 29 17559383871749137574
14279260 333 18188769440973958042
144659 39 18273219702807461508
14790565 3 18337955701046408576
14856354 85 17822304516752736331
14950920 106 17167854253623660497
15001296 14 18264489670740809704
15064986 96 18129678400293942545
15183329 4 18342454846729337564
15274700 232 16613640715040477334
15336146 87 18113908130660143685
15484559 13 16027008372093634684
16112460 7 18125445202495622305
18393751 57 18336557032441756179
18608769 82 18337392750940208243
21033650 10 14979967943092382427
21756936 100 18410855485930121059
22122407 14 18265053540186101225
22393880 68 17916573371396022598
338550 245 18261680358792754700
3388396 114 17407102731025485164
3552219 110 17845095259195065683
392239 28 14634873058665635222
4144715 1 18187940425495284891
50677037 204 18119521291981494556
5081480 168 17414745110042937470
508706 21 18263915691300322232
5104073 3 17894907395770379562
5252454 2 18202279238542737161
57724786 102 18127979607088782747
6523845 18 17060340717458838891

> <PUBCHEM_SHAPE_MULTIPOLES>
720.36
16.45
4.07
1.82
7.56
0.48
-0.62
7.73
3.04
0.04
-0.79
-2.61
-0.4
-0.53

> <PUBCHEM_SHAPE_SELFOVERLAP>
1567.653

> <PUBCHEM_SHAPE_VOLUME>
393

> <PUBCHEM_COORDINATE_TYPE>
2
5
10

$$$$
