114646
  -OEChem-02172602493D

 26 25  0     0  0  0  0  0  0999 V2000
    1.9324   -1.4527   -0.3094 C   0  0  0  0  0  0  0  0  0  0  0  0
   -1.9309   -1.4534    0.3094 C   0  0  0  0  0  0  0  0  0  0  0  0
    2.7754   -0.2305    0.0691 C   0  0  0  0  0  0  0  0  0  0  0  0
   -2.7753   -0.2319   -0.0680 C   0  0  0  0  0  0  0  0  0  0  0  0
    0.5778   -1.4462    0.3409 C   0  0  0  0  0  0  0  0  0  0  0  0
   -0.5766   -1.4466   -0.3416 C   0  0  0  0  0  0  0  0  0  0  0  0
    2.1374    1.0653   -0.3418 C   0  0  0  0  0  0  0  0  0  0  0  0
   -2.1377    1.0644    0.3420 C   0  0  0  0  0  0  0  0  0  0  0  0
    1.8676    2.0663    0.5034 C   0  0  0  0  0  0  0  0  0  0  0  0
   -1.8701    2.0653   -0.5040 C   0  0  0  0  0  0  0  0  0  0  0  0
    2.4618   -2.3601    0.0051 H   0  0  0  0  0  0  0  0  0  0  0  0
    1.8388   -1.5094   -1.4015 H   0  0  0  0  0  0  0  0  0  0  0  0
   -2.4601   -2.3611   -0.0048 H   0  0  0  0  0  0  0  0  0  0  0  0
   -1.8366   -1.5104    1.4014 H   0  0  0  0  0  0  0  0  0  0  0  0
    2.9724   -0.2409    1.1487 H   0  0  0  0  0  0  0  0  0  0  0  0
    3.7501   -0.3075   -0.4276 H   0  0  0  0  0  0  0  0  0  0  0  0
   -2.9737   -0.2425   -1.1474 H   0  0  0  0  0  0  0  0  0  0  0  0
   -3.7494   -0.3097    0.4299 H   0  0  0  0  0  0  0  0  0  0  0  0
    0.5570   -1.4515    1.4279 H   0  0  0  0  0  0  0  0  0  0  0  0
   -0.5560   -1.4524   -1.4286 H   0  0  0  0  0  0  0  0  0  0  0  0
    1.9015    1.1949   -1.3948 H   0  0  0  0  0  0  0  0  0  0  0  0
   -1.9005    1.1945    1.3948 H   0  0  0  0  0  0  0  0  0  0  0  0
    1.4147    2.9831    0.1422 H   0  0  0  0  0  0  0  0  0  0  0  0
    2.0906    1.9912    1.5618 H   0  0  0  0  0  0  0  0  0  0  0  0
   -1.4174    2.9826   -0.1439 H   0  0  0  0  0  0  0  0  0  0  0  0
   -2.0945    1.9896   -1.5621 H   0  0  0  0  0  0  0  0  0  0  0  0
  1  3  1  0  0  0  0
  1  5  1  0  0  0  0
  1 11  1  0  0  0  0
  1 12  1  0  0  0  0
  2  4  1  0  0  0  0
  2  6  1  0  0  0  0
  2 13  1  0  0  0  0
  2 14  1  0  0  0  0
  3  7  1  0  0  0  0
  3 15  1  0  0  0  0
  3 16  1  0  0  0  0
  4  8  1  0  0  0  0
  4 17  1  0  0  0  0
  4 18  1  0  0  0  0
  5  6  2  3  0  0  0
  5 19  1  0  0  0  0
  6 20  1  0  0  0  0
  7  9  2  0  0  0  0
  7 21  1  0  0  0  0
  8 10  2  0  0  0  0
  8 22  1  0  0  0  0
  9 23  1  0  0  0  0
  9 24  1  0  0  0  0
 10 25  1  0  0  0  0
 10 26  1  0  0  0  0
M  END
> <PUBCHEM_COMPOUND_CID>
114646

> <PUBCHEM_CONFORMER_RMSD>
0.6

> <PUBCHEM_CONFORMER_DIVERSEORDER>
1
46
42
34
25
3
91
4
37
86
84
27
112
59
70
7
60
96
74
67
5
103
68
8
88
9
51
75
97
61
92
66
43
47
107
94
11
55
12
57
102
63
104
6
72
105
50
89
23
29
90
77
30
101
38
19
21
22
100
18
24
69
10
56
41
44
110
32
14
36
48
20
35
26
31
15
108
28
39
93
73
54
53
79
82
87
49
62
16
2
83
106
80
99
17
64
13
33
71
85
81
98
58
95
109
65
40
76
45
52
111
78

> <PUBCHEM_MMFF94_PARTIAL_CHARGES>
18
1 0.14
10 -0.3
19 0.15
2 0.14
20 0.15
21 0.15
22 0.15
23 0.15
24 0.15
25 0.15
26 0.15
3 0.14
4 0.14
5 -0.29
6 -0.29
7 -0.29
8 -0.29
9 -0.3

> <PUBCHEM_EFFECTIVE_ROTOR_COUNT>
6

> <PUBCHEM_PHARMACOPHORE_FEATURES>
4
1 10 hydrophobe
1 9 hydrophobe
4 1 3 5 7 hydrophobe
4 2 4 6 8 hydrophobe

> <PUBCHEM_HEAVY_ATOM_COUNT>
10

> <PUBCHEM_ATOM_DEF_STEREO_COUNT>
0

> <PUBCHEM_ATOM_UDEF_STEREO_COUNT>
0

> <PUBCHEM_BOND_DEF_STEREO_COUNT>
0

> <PUBCHEM_BOND_UDEF_STEREO_COUNT>
1

> <PUBCHEM_ISOTOPIC_ATOM_COUNT>
0

> <PUBCHEM_COMPONENT_COUNT>
1

> <PUBCHEM_CACTVS_TAUTO_COUNT>
1

> <PUBCHEM_CONFORMER_ID>
0001BFD600000001

> <PUBCHEM_MMFF94_ENERGY>
0.873

> <PUBCHEM_FEATURE_SELFOVERLAP>
20.318

> <PUBCHEM_SHAPE_FINGERPRINT>
13618510 140 18409448124094778972
13897977 150 18340202015875568433
14251711 518 18410566288570258082
14390081 3 18411138056186665523
15775835 57 18410586084074603297
17802600 8 18410568487593338243
19973954 147 18410859862469887042
2748010 2 17978795936469933414
2897 32 18337675196115180172
59345606 82 18410852148798489101
66348 1 18410575119065301173
8050 44 18340758334003995265
8199 65 12501290012063321196

> <PUBCHEM_SHAPE_MULTIPOLES>
205.8
4.58
2.55
0.73
0
0.78
0
0.88
0
0
0
0
0.07
0.34

> <PUBCHEM_SHAPE_SELFOVERLAP>
374.308

> <PUBCHEM_SHAPE_VOLUME>
129.4

> <PUBCHEM_COORDINATE_TYPE>
2
5
10

$$$$
