10141617
  -OEChem-02172602513D

 72 75  0     1  0  0  0  0  0999 V2000
   -0.9843   -1.2327    3.3839 O   0  0  0  0  0  0  0  0  0  0  0  0
   -2.5858    1.5661   -1.1010 O   0  0  0  0  0  0  0  0  0  0  0  0
    0.7323   -5.0194   -2.4125 O   0  0  0  0  0  0  0  0  0  0  0  0
   -0.9222   -2.4109    0.6082 N   0  0  0  0  0  0  0  0  0  0  0  0
    0.9875   -1.9858   -0.4425 N   0  0  0  0  0  0  0  0  0  0  0  0
    2.3978   -3.4644   -2.4727 N   0  0  0  0  0  0  0  0  0  0  0  0
   -2.0928   -2.3256    1.4961 C   0  0  2  0  0  0  0  0  0  0  0  0
   -2.9936   -1.0972    1.2048 C   0  0  0  0  0  0  0  0  0  0  0  0
   -1.7041   -2.3992    2.9965 C   0  0  1  0  0  0  0  0  0  0  0  0
   -3.5174   -1.0023   -0.2377 C   0  0  0  0  0  0  0  0  0  0  0  0
    3.4489    2.4405    0.8135 C   0  0  0  0  0  0  0  0  0  0  0  0
    2.0273    2.5514    0.3764 C   0  0  0  0  0  0  0  0  0  0  0  0
   -4.4351    0.1670   -0.4937 C   0  0  0  0  0  0  0  0  0  0  0  0
   -0.8932   -3.6380    3.3632 C   0  0  0  0  0  0  0  0  0  0  0  0
    4.1595    1.1792    0.2190 C   0  0  0  0  0  0  0  0  0  0  0  0
    4.1940    3.7661    0.4269 C   0  0  0  0  0  0  0  0  0  0  0  0
    3.6765    2.3282    2.3683 C   0  0  0  0  0  0  0  0  0  0  0  0
   -0.6442   -3.4120   -0.2886 C   0  0  0  0  0  0  0  0  0  0  0  0
    0.0798   -1.5683    0.4906 C   0  0  0  0  0  0  0  0  0  0  0  0
   -3.9245    1.3953   -0.9133 C   0  0  0  0  0  0  0  0  0  0  0  0
    1.7207    2.6555   -0.9804 C   0  0  0  0  0  0  0  0  0  0  0  0
    1.0045    2.5520    1.3247 C   0  0  0  0  0  0  0  0  0  0  0  0
    0.5354   -3.1702   -0.9524 C   0  0  0  0  0  0  0  0  0  0  0  0
   -0.6318    2.7609   -0.4405 C   0  0  0  0  0  0  0  0  0  0  0  0
   -5.8084    0.0098   -0.3064 C   0  0  0  0  0  0  0  0  0  0  0  0
   -2.0622    2.8739   -0.8795 C   0  0  0  0  0  0  0  0  0  0  0  0
    3.6675   -0.0956    0.4990 C   0  0  0  0  0  0  0  0  0  0  0  0
    5.2855    1.3297   -0.5905 C   0  0  0  0  0  0  0  0  0  0  0  0
    0.3911    2.7603   -1.3888 C   0  0  0  0  0  0  0  0  0  0  0  0
   -0.3251    2.6568    0.9163 C   0  0  0  0  0  0  0  0  0  0  0  0
   -4.7872    2.4664   -1.1455 C   0  0  0  0  0  0  0  0  0  0  0  0
   -6.6711    1.0810   -0.5387 C   0  0  0  0  0  0  0  0  0  0  0  0
   -6.1606    2.3094   -0.9582 C   0  0  0  0  0  0  0  0  0  0  0  0
    4.3012   -1.2199   -0.0304 C   0  0  0  0  0  0  0  0  0  0  0  0
    5.9191    0.2056   -1.1202 C   0  0  0  0  0  0  0  0  0  0  0  0
    1.1883   -3.9444   -1.9542 C   0  0  0  0  0  0  0  0  0  0  0  0
    5.4269   -1.0692   -0.8400 C   0  0  0  0  0  0  0  0  0  0  0  0
   -2.6881   -3.2221    1.2717 H   0  0  0  0  0  0  0  0  0  0  0  0
   -2.4443   -0.1752    1.4362 H   0  0  0  0  0  0  0  0  0  0  0  0
   -3.8505   -1.1210    1.8910 H   0  0  0  0  0  0  0  0  0  0  0  0
   -2.6292   -2.4110    3.5859 H   0  0  0  0  0  0  0  0  0  0  0  0
   -2.6797   -0.9626   -0.9445 H   0  0  0  0  0  0  0  0  0  0  0  0
   -4.0498   -1.9306   -0.4853 H   0  0  0  0  0  0  0  0  0  0  0  0
   -0.7403   -3.6816    4.4472 H   0  0  0  0  0  0  0  0  0  0  0  0
   -1.4027   -4.5541    3.0500 H   0  0  0  0  0  0  0  0  0  0  0  0
    0.1052   -3.6132    2.9145 H   0  0  0  0  0  0  0  0  0  0  0  0
    4.2083    3.9434   -0.6548 H   0  0  0  0  0  0  0  0  0  0  0  0
    5.2299    3.7771    0.7873 H   0  0  0  0  0  0  0  0  0  0  0  0
    3.6913    4.6316    0.8781 H   0  0  0  0  0  0  0  0  0  0  0  0
    3.3041    3.2172    2.8915 H   0  0  0  0  0  0  0  0  0  0  0  0
    3.1805    1.4523    2.8025 H   0  0  0  0  0  0  0  0  0  0  0  0
    4.7447    2.2384    2.6041 H   0  0  0  0  0  0  0  0  0  0  0  0
   -1.3297   -4.2439   -0.3864 H   0  0  0  0  0  0  0  0  0  0  0  0
    0.1932   -0.6464    1.0447 H   0  0  0  0  0  0  0  0  0  0  0  0
    2.4997    2.6527   -1.7379 H   0  0  0  0  0  0  0  0  0  0  0  0
    1.1873    2.4721    2.3905 H   0  0  0  0  0  0  0  0  0  0  0  0
   -0.7954   -1.3047    4.3350 H   0  0  0  0  0  0  0  0  0  0  0  0
   -6.2192   -0.9413    0.0221 H   0  0  0  0  0  0  0  0  0  0  0  0
    2.7966   -0.2329    1.1327 H   0  0  0  0  0  0  0  0  0  0  0  0
    5.7104    2.2937   -0.8445 H   0  0  0  0  0  0  0  0  0  0  0  0
   -2.6135    3.4162   -0.0990 H   0  0  0  0  0  0  0  0  0  0  0  0
   -2.1250    3.4546   -1.8081 H   0  0  0  0  0  0  0  0  0  0  0  0
    0.1645    2.8376   -2.4488 H   0  0  0  0  0  0  0  0  0  0  0  0
   -1.1139    2.6517    1.6640 H   0  0  0  0  0  0  0  0  0  0  0  0
   -4.4384    3.4310   -1.5017 H   0  0  0  0  0  0  0  0  0  0  0  0
   -7.7405    0.9584   -0.3941 H   0  0  0  0  0  0  0  0  0  0  0  0
   -6.8335    3.1411   -1.1455 H   0  0  0  0  0  0  0  0  0  0  0  0
    3.9217   -2.2128    0.1918 H   0  0  0  0  0  0  0  0  0  0  0  0
    6.7953    0.3218   -1.7513 H   0  0  0  0  0  0  0  0  0  0  0  0
    5.9203   -1.9447   -1.2518 H   0  0  0  0  0  0  0  0  0  0  0  0
    2.8967   -3.9773   -3.1919 H   0  0  0  0  0  0  0  0  0  0  0  0
    2.8105   -2.5928   -2.1569 H   0  0  0  0  0  0  0  0  0  0  0  0
  1  9  1  0  0  0  0
  1 57  1  0  0  0  0
  2 20  1  0  0  0  0
  2 26  1  0  0  0  0
  3 36  2  0  0  0  0
  4  7  1  0  0  0  0
  4 18  1  0  0  0  0
  4 19  1  0  0  0  0
  5 19  2  0  0  0  0
  5 23  1  0  0  0  0
  6 36  1  0  0  0  0
  6 71  1  0  0  0  0
  6 72  1  0  0  0  0
  7  8  1  0  0  0  0
  7  9  1  0  0  0  0
  7 38  1  0  0  0  0
  8 10  1  0  0  0  0
  8 39  1  0  0  0  0
  8 40  1  0  0  0  0
  9 14  1  0  0  0  0
  9 41  1  0  0  0  0
 10 13  1  0  0  0  0
 10 42  1  0  0  0  0
 10 43  1  0  0  0  0
 11 12  1  0  0  0  0
 11 15  1  0  0  0  0
 11 16  1  0  0  0  0
 11 17  1  0  0  0  0
 12 21  2  0  0  0  0
 12 22  1  0  0  0  0
 13 20  1  0  0  0  0
 13 25  2  0  0  0  0
 14 44  1  0  0  0  0
 14 45  1  0  0  0  0
 14 46  1  0  0  0  0
 15 27  2  0  0  0  0
 15 28  1  0  0  0  0
 16 47  1  0  0  0  0
 16 48  1  0  0  0  0
 16 49  1  0  0  0  0
 17 50  1  0  0  0  0
 17 51  1  0  0  0  0
 17 52  1  0  0  0  0
 18 23  2  0  0  0  0
 18 53  1  0  0  0  0
 19 54  1  0  0  0  0
 20 31  2  0  0  0  0
 21 29  1  0  0  0  0
 21 55  1  0  0  0  0
 22 30  2  0  0  0  0
 22 56  1  0  0  0  0
 23 36  1  0  0  0  0
 24 26  1  0  0  0  0
 24 29  2  0  0  0  0
 24 30  1  0  0  0  0
 25 32  1  0  0  0  0
 25 58  1  0  0  0  0
 26 61  1  0  0  0  0
 26 62  1  0  0  0  0
 27 34  1  0  0  0  0
 27 59  1  0  0  0  0
 28 35  2  0  0  0  0
 28 60  1  0  0  0  0
 29 63  1  0  0  0  0
 30 64  1  0  0  0  0
 31 33  1  0  0  0  0
 31 65  1  0  0  0  0
 32 33  2  0  0  0  0
 32 66  1  0  0  0  0
 33 67  1  0  0  0  0
 34 37  2  0  0  0  0
 34 68  1  0  0  0  0
 35 37  1  0  0  0  0
 35 69  1  0  0  0  0
 37 70  1  0  0  0  0
M  END
> <PUBCHEM_COMPOUND_CID>
10141617

> <PUBCHEM_CONFORMER_RMSD>
1.6

> <PUBCHEM_CONFORMER_DIVERSEORDER>
1
41
3
18
57
62
10
112
60
114
75
67
28
43
118
101
93
71
31
86
42
4
49
44
21
96
94
115
32
15
72
9
74
97
25
111
23
59
37
104
120
53
24
80
55
36
78
27
20
16
87
19
68
40
107
14
117
79
76
34
12
38
52
116
22
66
5
65
110
54
121
51
85
29
56
98
81
70
83
105
17
95
63
88
13
90
109
26
64
48
2
108
39
69
82
77
6
102
99
8
47
61
89
73
119
35
46
103
58
30
7
113
45
11
84
100
106
33
50
91
92

> <PUBCHEM_MMFF94_PARTIAL_CHARGES>
51
1 -0.68
10 0.14
11 0.29
12 -0.14
13 -0.14
15 -0.14
18 -0.3
19 0.04
2 -0.36
20 0.08
21 -0.15
22 -0.15
23 0.14
24 -0.14
25 -0.15
26 0.42
27 -0.15
28 -0.15
29 -0.15
3 -0.57
30 -0.15
31 -0.15
32 -0.15
33 -0.15
34 -0.15
35 -0.15
36 0.72
37 -0.15
4 0.05
5 -0.57
53 0.15
54 0.15
55 0.15
56 0.15
57 0.4
58 0.15
59 0.15
6 -0.8
60 0.15
63 0.15
64 0.15
65 0.15
66 0.15
67 0.15
68 0.15
69 0.15
7 0.26
70 0.15
71 0.37
72 0.37
9 0.28

> <PUBCHEM_EFFECTIVE_ROTOR_COUNT>
11

> <PUBCHEM_PHARMACOPHORE_FEATURES>
11
1 1 acceptor
1 1 donor
1 2 acceptor
1 3 acceptor
1 6 donor
3 11 16 17 hydrophobe
3 4 5 19 cation
5 4 5 18 19 23 rings
6 12 21 22 24 29 30 rings
6 13 20 25 31 32 33 rings
6 15 27 28 34 35 37 rings

> <PUBCHEM_HEAVY_ATOM_COUNT>
37

> <PUBCHEM_ATOM_DEF_STEREO_COUNT>
0

> <PUBCHEM_ATOM_UDEF_STEREO_COUNT>
2

> <PUBCHEM_BOND_DEF_STEREO_COUNT>
0

> <PUBCHEM_BOND_UDEF_STEREO_COUNT>
0

> <PUBCHEM_ISOTOPIC_ATOM_COUNT>
0

> <PUBCHEM_COMPONENT_COUNT>
1

> <PUBCHEM_CACTVS_TAUTO_COUNT>
2

> <PUBCHEM_CONFORMER_ID>
009ABFB100000001

> <PUBCHEM_MMFF94_ENERGY>
110.1148

> <PUBCHEM_FEATURE_SELFOVERLAP>
55.821

> <PUBCHEM_SHAPE_FINGERPRINT>
10462674 296 16971960069989196086
107951 10 17967247624499703107
10816530 23 17910942862270884160
11513181 2 18198625621554389590
11578080 2 17628621257517329072
12156800 1 16082811125681464409
13402501 40 18408886217702288277
1361 2 18272925042180737031
14725015 67 18117825621501063464
15444296 8 17317073516341378322
16067689 134 17622171161469049669
16067689 68 14403796259921353702
17909252 39 17769378223095773958
19304152 47 17615130314621973584
20028762 73 18130782322452225068
20642791 35 18048032970673701797
20764821 26 18267301126325529132
21033648 29 18271235148970760128
21133410 230 17532966907202417091
21133410 38 17915473688133286977
21133410 90 17416127406976218945
238918 7 18411975879677918373
3298306 158 18410848863422574085
3383291 50 18271517607911816630
508706 21 18188487007781378059
5265222 85 18337115690810479196
86090 222 18341052913210477276

> <PUBCHEM_SHAPE_MULTIPOLES>
728.89
12.32
6.25
2.48
5.05
4.3
1.77
-8.44
-3.67
-1.2
-1.23
-0.12
2.99
4.2

> <PUBCHEM_SHAPE_SELFOVERLAP>
1562.452

> <PUBCHEM_SHAPE_VOLUME>
405.4

> <PUBCHEM_COORDINATE_TYPE>
2
5
10

$$$$
