103993
  -OEChem-02172602273D

 19 19  0     0  0  0  0  0  0999 V2000
    1.9190    2.4581    0.0003 O   0  0  0  0  0  0  0  0  0  0  0  0
    2.1462   -2.3102    0.0007 O   0  0  0  0  0  0  0  0  0  0  0  0
   -2.7896   -1.2212    0.0000 O   0  0  0  0  0  0  0  0  0  0  0  0
   -0.7374   -0.0582   -0.0002 C   0  0  0  0  0  0  0  0  0  0  0  0
    0.0168   -1.2316   -0.0005 C   0  0  0  0  0  0  0  0  0  0  0  0
   -0.0983    1.1816   -0.0002 C   0  0  0  0  0  0  0  0  0  0  0  0
    1.2950    1.2481   -0.0001 C   0  0  0  0  0  0  0  0  0  0  0  0
    1.4101   -1.1651   -0.0004 C   0  0  0  0  0  0  0  0  0  0  0  0
    2.0491    0.0748   -0.0001 C   0  0  0  0  0  0  0  0  0  0  0  0
   -2.1903   -0.1275    0.0002 C   0  0  0  0  0  0  0  0  0  0  0  0
   -3.0206    1.1513    0.0003 C   0  0  0  0  0  0  0  0  0  0  0  0
   -0.4639   -2.2069   -0.0003 H   0  0  0  0  0  0  0  0  0  0  0  0
   -0.6589    2.1117    0.0000 H   0  0  0  0  0  0  0  0  0  0  0  0
    3.1347    0.1338    0.0002 H   0  0  0  0  0  0  0  0  0  0  0  0
   -2.8184    1.7340   -0.9021 H   0  0  0  0  0  0  0  0  0  0  0  0
   -2.8179    1.7341    0.9025 H   0  0  0  0  0  0  0  0  0  0  0  0
   -4.0831    0.8877    0.0006 H   0  0  0  0  0  0  0  0  0  0  0  0
    1.2470    3.1611    0.0003 H   0  0  0  0  0  0  0  0  0  0  0  0
    3.0907   -2.0778    0.0008 H   0  0  0  0  0  0  0  0  0  0  0  0
  1  7  1  0  0  0  0
  1 18  1  0  0  0  0
  2  8  1  0  0  0  0
  2 19  1  0  0  0  0
  3 10  2  0  0  0  0
  4  5  2  0  0  0  0
  4  6  1  0  0  0  0
  4 10  1  0  0  0  0
  5  8  1  0  0  0  0
  5 12  1  0  0  0  0
  6  7  2  0  0  0  0
  6 13  1  0  0  0  0
  7  9  1  0  0  0  0
  8  9  2  0  0  0  0
  9 14  1  0  0  0  0
 10 11  1  0  0  0  0
 11 15  1  0  0  0  0
 11 16  1  0  0  0  0
 11 17  1  0  0  0  0
M  END
> <PUBCHEM_COMPOUND_CID>
103993

> <PUBCHEM_CONFORMER_RMSD>
0.4

> <PUBCHEM_CONFORMER_DIVERSEORDER>
1
2

> <PUBCHEM_MMFF94_PARTIAL_CHARGES>
16
1 -0.53
10 0.42
11 0.06
12 0.15
13 0.15
14 0.15
18 0.45
19 0.45
2 -0.53
3 -0.57
4 0.09
5 -0.15
6 -0.15
7 0.08
8 0.08
9 -0.15

> <PUBCHEM_EFFECTIVE_ROTOR_COUNT>
1

> <PUBCHEM_PHARMACOPHORE_FEATURES>
4
1 1 donor
1 2 donor
1 3 acceptor
6 4 5 6 7 8 9 rings

> <PUBCHEM_HEAVY_ATOM_COUNT>
11

> <PUBCHEM_ATOM_DEF_STEREO_COUNT>
0

> <PUBCHEM_ATOM_UDEF_STEREO_COUNT>
0

> <PUBCHEM_BOND_DEF_STEREO_COUNT>
0

> <PUBCHEM_BOND_UDEF_STEREO_COUNT>
0

> <PUBCHEM_ISOTOPIC_ATOM_COUNT>
0

> <PUBCHEM_COMPONENT_COUNT>
1

> <PUBCHEM_CACTVS_TAUTO_COUNT>
10

> <PUBCHEM_CONFORMER_ID>
0001963900000001

> <PUBCHEM_MMFF94_ENERGY>
27.3837

> <PUBCHEM_FEATURE_SELFOVERLAP>
20.297

> <PUBCHEM_SHAPE_FINGERPRINT>
1 1 18338799047475356772
10130415 120 18117839884918719739
13380535 76 18192144026109699882
14325111 11 18338516472929236193
14648413 74 18408605842432364569
16945 1 18410856581130463302
17990270 104 18410009922865089627
193761 8 18266740371047979046
19973954 147 18410293610082156577
20645477 70 18411131459829283055
20871998 22 18054513504301469934
21040471 1 17978510063715808420
21501502 16 18410573998500544221
23402655 69 18268978822757475637
23552423 10 18409731776646016039
241688 4 17978230461355128904
2748010 2 18409449197862684423
5084963 1 18129950103544880193
63268167 104 18338804416031593449
7364860 26 18342738520317704144
81228 2 17547581374870939194

> <PUBCHEM_SHAPE_MULTIPOLES>
208.77
3.93
2.2
0.59
2.46
0.31
0
-0.16
0
-1.35
0
0.01
0.01
0

> <PUBCHEM_SHAPE_SELFOVERLAP>
437.836

> <PUBCHEM_SHAPE_VOLUME>
118.7

> <PUBCHEM_COORDINATE_TYPE>
2
5
10

$$$$
