114755
  -OEChem-02172602493D

 30 32  0     0  0  0  0  0  0999 V2000
    5.9347   -0.4377   -0.0003 O   0  0  0  0  0  0  0  0  0  0  0  0
   -3.6061    0.3928    0.0005 N   0  0  0  0  0  0  0  0  0  0  0  0
   -0.3283   -0.8012   -0.0005 N   0  0  0  0  0  0  0  0  0  0  0  0
   -2.6194   -1.6038   -0.0005 N   0  0  0  0  0  0  0  0  0  0  0  0
   -5.0206   -1.4863   -0.0010 N   0  0  0  0  0  0  0  0  0  0  0  0
   -2.2617    0.6469    0.0004 C   0  0  0  0  0  0  0  0  0  0  0  0
   -1.6714   -0.6117   -0.0002 C   0  0  0  0  0  0  0  0  0  0  0  0
    0.3924    0.3451   -0.0001 C   0  0  0  0  0  0  0  0  0  0  0  0
   -1.5064    1.8145    0.0010 C   0  0  0  0  0  0  0  0  0  0  0  0
   -3.7698   -0.9664   -0.0004 C   0  0  0  0  0  0  0  0  0  0  0  0
   -0.1255    1.6360    0.0007 C   0  0  0  0  0  0  0  0  0  0  0  0
    1.8239    0.1418    0.0001 C   0  0  0  0  0  0  0  0  0  0  0  0
   -4.6521    1.3920    0.0002 C   0  0  0  0  0  0  0  0  0  0  0  0
    2.5151    0.0427    1.2080 C   0  0  0  0  0  0  0  0  0  0  0  0
    2.5154    0.0457   -1.2079 C   0  0  0  0  0  0  0  0  0  0  0  0
    3.8962   -0.1524    1.2079 C   0  0  0  0  0  0  0  0  0  0  0  0
    3.8967   -0.1496   -1.2079 C   0  0  0  0  0  0  0  0  0  0  0  0
    4.5870   -0.2485   -0.0001 C   0  0  0  0  0  0  0  0  0  0  0  0
   -1.9490    2.8026    0.0016 H   0  0  0  0  0  0  0  0  0  0  0  0
    0.5250    2.5064    0.0011 H   0  0  0  0  0  0  0  0  0  0  0  0
   -4.2231    2.3954    0.0009 H   0  0  0  0  0  0  0  0  0  0  0  0
   -5.2577    1.2566   -0.8997 H   0  0  0  0  0  0  0  0  0  0  0  0
   -5.2588    1.2560    0.8993 H   0  0  0  0  0  0  0  0  0  0  0  0
    1.9914    0.1151    2.1584 H   0  0  0  0  0  0  0  0  0  0  0  0
    1.9922    0.1204   -2.1583 H   0  0  0  0  0  0  0  0  0  0  0  0
   -5.8616   -0.9182   -0.0006 H   0  0  0  0  0  0  0  0  0  0  0  0
   -5.1720   -2.4900   -0.0015 H   0  0  0  0  0  0  0  0  0  0  0  0
    4.4225   -0.2278    2.1557 H   0  0  0  0  0  0  0  0  0  0  0  0
    4.4293   -0.2235   -2.1522 H   0  0  0  0  0  0  0  0  0  0  0  0
    6.2467   -0.4828    0.9199 H   0  0  0  0  0  0  0  0  0  0  0  0
  1 18  1  0  0  0  0
  1 30  1  0  0  0  0
  2  6  1  0  0  0  0
  2 10  1  0  0  0  0
  2 13  1  0  0  0  0
  3  7  1  0  0  0  0
  3  8  2  0  0  0  0
  4  7  1  0  0  0  0
  4 10  2  0  0  0  0
  5 10  1  0  0  0  0
  5 26  1  0  0  0  0
  5 27  1  0  0  0  0
  6  7  2  0  0  0  0
  6  9  1  0  0  0  0
  8 11  1  0  0  0  0
  8 12  1  0  0  0  0
  9 11  2  0  0  0  0
  9 19  1  0  0  0  0
 11 20  1  0  0  0  0
 12 14  2  0  0  0  0
 12 15  1  0  0  0  0
 13 21  1  0  0  0  0
 13 22  1  0  0  0  0
 13 23  1  0  0  0  0
 14 16  1  0  0  0  0
 14 24  1  0  0  0  0
 15 17  2  0  0  0  0
 15 25  1  0  0  0  0
 16 18  2  0  0  0  0
 16 28  1  0  0  0  0
 17 18  1  0  0  0  0
 17 29  1  0  0  0  0
M  END
> <PUBCHEM_COMPOUND_CID>
114755

> <PUBCHEM_CONFORMER_RMSD>
0.6

> <PUBCHEM_CONFORMER_DIVERSEORDER>
1
2

> <PUBCHEM_MMFF94_PARTIAL_CHARGES>
26
1 -0.53
10 0.27
11 -0.15
13 0.26
14 -0.15
15 -0.15
16 -0.15
17 -0.15
18 0.08
19 0.15
2 0.05
20 0.15
24 0.15
25 0.15
26 0.4
27 0.4
28 0.15
29 0.15
3 -0.57
30 0.45
4 -0.57
5 -0.88
6 -0.15
7 0.48
8 0.31
9 -0.15

> <PUBCHEM_EFFECTIVE_ROTOR_COUNT>
1

> <PUBCHEM_PHARMACOPHORE_FEATURES>
7
1 1 donor
1 3 acceptor
1 5 donor
4 2 4 5 10 cation
5 2 4 6 7 10 rings
6 12 14 15 16 17 18 rings
6 3 6 7 8 9 11 rings

> <PUBCHEM_HEAVY_ATOM_COUNT>
18

> <PUBCHEM_ATOM_DEF_STEREO_COUNT>
0

> <PUBCHEM_ATOM_UDEF_STEREO_COUNT>
0

> <PUBCHEM_BOND_DEF_STEREO_COUNT>
0

> <PUBCHEM_BOND_UDEF_STEREO_COUNT>
0

> <PUBCHEM_ISOTOPIC_ATOM_COUNT>
0

> <PUBCHEM_COMPONENT_COUNT>
1

> <PUBCHEM_CACTVS_TAUTO_COUNT>
11

> <PUBCHEM_CONFORMER_ID>
0001C04300000001

> <PUBCHEM_MMFF94_ENERGY>
47.8721

> <PUBCHEM_FEATURE_SELFOVERLAP>
35.649

> <PUBCHEM_SHAPE_FINGERPRINT>
10062212 137 18260266365247994851
11046707 91 18409166632112012481
11132069 177 18341614793748826261
11315181 36 18343868805681711320
11471102 20 15213301924509604070
11543360 7 15719674367797588835
12236239 1 17822010896061731804
12403814 3 13326858816522255443
13214271 11 18201716245845494445
13288520 33 18411138034621787991
13675066 3 17846495958802050865
13760787 19 17749105574084492939
13760787 5 17168146740922956077
13862211 1 18339359768710510159
14115302 16 17676773174937988354
14386348 63 17846501426448341078
15196674 1 18410575123402589857
15375358 24 17989205927909641685
16752209 62 18261100872903455243
17804303 29 18341611538211192777
18186145 218 13045939097014486701
19141452 34 17632015355470341943
200 152 16732700536909950132
20279233 1 17704075083705640894
21033648 29 16917054530236105953
21267235 1 18336271223283542867
22646028 1 17967530173081035162
22854114 59 16845854589912307110
2297311 6 18271534138918815180
23175994 123 17203611492993599209
23366157 5 17898289660740942909
23402539 116 18410007728136548268
23402655 69 14201390586582786174
23557571 272 18272937119665624748
23559900 14 18271529706707608310
26918003 58 16773797000101041058
300161 21 17822004302859833452
34797466 226 18059027193487481700
4214541 1 18410573976688389929
465052 167 18192160497805678275
474 4 16951983962389859764
5104073 3 18410577326799947865
542803 24 17675927590508909972
559249 180 18260543385911343371
573450 72 18187920651444150488
67856867 119 18188213229729531796
7364860 26 18126849536621476720
7495541 125 18130785681559956704
77492 1 17676209044148076996
8863177 126 17608102180547759235

> <PUBCHEM_SHAPE_MULTIPOLES>
344.64
10.92
1.44
0.94
3.07
0.21
0
-2.31
0
-2
0
1.12
-0.01
0

> <PUBCHEM_SHAPE_SELFOVERLAP>
770.23

> <PUBCHEM_SHAPE_VOLUME>
184.1

> <PUBCHEM_COORDINATE_TYPE>
2
5
10

$$$$
