10188619
  -OEChem-02172602473D

 75 77  0     1  0  0  0  0  0999 V2000
    4.8400   -2.3352    0.2878 S   0  0  0  0  0  0  0  0  0  0  0  0
   -4.5069    3.4977   -1.6322 O   0  0  0  0  0  0  0  0  0  0  0  0
   -4.3682    1.4725   -2.6451 O   0  0  0  0  0  0  0  0  0  0  0  0
    3.5893    3.2082    0.4667 O   0  0  0  0  0  0  0  0  0  0  0  0
    5.2695   -1.0780   -0.3085 O   0  0  0  0  0  0  0  0  0  0  0  0
    4.7773   -2.4640    1.7371 O   0  0  0  0  0  0  0  0  0  0  0  0
    2.9385    1.3616    1.6999 O   0  0  0  0  0  0  0  0  0  0  0  0
   -1.9436    0.9694   -1.5788 N   0  0  0  0  0  0  0  0  0  0  0  0
   -4.6131   -1.2227    1.5592 N   0  0  0  0  0  0  0  0  0  0  0  0
   -3.3001   -0.0984    0.0081 N   0  0  0  0  0  0  0  0  0  0  0  0
   -1.5732   -3.6695   -1.0006 N   0  0  0  0  0  0  0  0  0  0  0  0
   -1.7355   -1.3508   -1.3115 N   0  0  0  0  0  0  0  0  0  0  0  0
   -3.1108   -2.4721    0.3037 N   0  0  0  0  0  0  0  0  0  0  0  0
    5.8077   -3.5989   -0.3334 N   0  0  0  0  0  0  0  0  0  0  0  0
    5.1065    2.1687    1.9409 N   0  0  0  0  0  0  0  0  0  0  0  0
   -6.2826   -0.2637    3.1065 C   0  0  0  0  0  0  0  0  0  0  0  0
   -2.5067    2.2481   -1.2765 C   0  0  1  0  0  0  0  0  0  0  0  0
   -1.5936    3.3605   -1.8040 C   0  0  0  0  0  0  0  0  0  0  0  0
   -5.2749   -0.0091    1.9768 C   0  0  0  0  0  0  0  0  0  0  0  0
   -0.2113    3.3204   -1.1981 C   0  0  0  0  0  0  0  0  0  0  0  0
   -5.5994   -0.7370    4.3907 C   0  0  0  0  0  0  0  0  0  0  0  0
   -7.3798   -1.2441    2.6883 C   0  0  0  0  0  0  0  0  0  0  0  0
   -2.3458   -0.2175   -0.9290 C   0  0  0  0  0  0  0  0  0  0  0  0
   -3.6321   -1.2663    0.5815 C   0  0  0  0  0  0  0  0  0  0  0  0
   -3.8725    2.3330   -1.9295 C   0  0  0  0  0  0  0  0  0  0  0  0
    0.7965    2.5753   -1.8104 C   0  0  0  0  0  0  0  0  0  0  0  0
    0.0582    4.0277   -0.0265 C   0  0  0  0  0  0  0  0  0  0  0  0
   -0.5577   -3.7847   -1.9999 C   0  0  0  0  0  0  0  0  0  0  0  0
   -2.1687   -2.4376   -0.6525 C   0  0  0  0  0  0  0  0  0  0  0  0
    0.7860   -3.4232   -1.4304 C   0  0  0  0  0  0  0  0  0  0  0  0
    2.0738    2.5377   -1.2512 C   0  0  0  0  0  0  0  0  0  0  0  0
    1.3353    3.9901    0.5329 C   0  0  0  0  0  0  0  0  0  0  0  0
    2.3432    3.2452   -0.0795 C   0  0  0  0  0  0  0  0  0  0  0  0
    3.2799   -2.7545   -0.3742 C   0  0  0  0  0  0  0  0  0  0  0  0
    1.1725   -3.9205   -0.1857 C   0  0  0  0  0  0  0  0  0  0  0  0
    1.6466   -2.5916   -2.1469 C   0  0  0  0  0  0  0  0  0  0  0  0
    2.4194   -3.5862    0.3424 C   0  0  0  0  0  0  0  0  0  0  0  0
    2.8936   -2.2573   -1.6188 C   0  0  0  0  0  0  0  0  0  0  0  0
    3.8148    2.1728    1.4026 C   0  0  0  0  0  0  0  0  0  0  0  0
    6.1398    3.1334    1.5789 C   0  0  0  0  0  0  0  0  0  0  0  0
    5.4883    1.1605    2.9195 C   0  0  0  0  0  0  0  0  0  0  0  0
   -6.7663    0.6967    3.3287 H   0  0  0  0  0  0  0  0  0  0  0  0
   -2.6336    2.3666   -0.1926 H   0  0  0  0  0  0  0  0  0  0  0  0
   -1.5092    3.2995   -2.8983 H   0  0  0  0  0  0  0  0  0  0  0  0
   -2.0389    4.3452   -1.6095 H   0  0  0  0  0  0  0  0  0  0  0  0
   -4.5326    0.7231    2.3183 H   0  0  0  0  0  0  0  0  0  0  0  0
   -5.8016    0.4342    1.1225 H   0  0  0  0  0  0  0  0  0  0  0  0
   -1.3122    0.8532   -2.3627 H   0  0  0  0  0  0  0  0  0  0  0  0
   -5.1322   -1.7193    4.2670 H   0  0  0  0  0  0  0  0  0  0  0  0
   -6.3264   -0.8148    5.2064 H   0  0  0  0  0  0  0  0  0  0  0  0
   -4.8245   -0.0286    4.7020 H   0  0  0  0  0  0  0  0  0  0  0  0
   -6.9927   -2.2555    2.5295 H   0  0  0  0  0  0  0  0  0  0  0  0
   -8.1520   -1.3055    3.4630 H   0  0  0  0  0  0  0  0  0  0  0  0
   -7.8639   -0.9143    1.7630 H   0  0  0  0  0  0  0  0  0  0  0  0
   -4.8495   -2.1054    1.9965 H   0  0  0  0  0  0  0  0  0  0  0  0
    0.6070    2.0273   -2.7292 H   0  0  0  0  0  0  0  0  0  0  0  0
   -0.7195    4.6097    0.4607 H   0  0  0  0  0  0  0  0  0  0  0  0
   -0.8005   -3.1874   -2.8874 H   0  0  0  0  0  0  0  0  0  0  0  0
   -0.5071   -4.8260   -2.3410 H   0  0  0  0  0  0  0  0  0  0  0  0
   -1.8913   -4.4913   -0.5004 H   0  0  0  0  0  0  0  0  0  0  0  0
    2.8549    1.9566   -1.7339 H   0  0  0  0  0  0  0  0  0  0  0  0
    1.5385    4.5432    1.4458 H   0  0  0  0  0  0  0  0  0  0  0  0
    0.5239   -4.5811    0.3836 H   0  0  0  0  0  0  0  0  0  0  0  0
    1.3587   -2.1981   -3.1181 H   0  0  0  0  0  0  0  0  0  0  0  0
    2.7035   -3.9918    1.3093 H   0  0  0  0  0  0  0  0  0  0  0  0
    3.5499   -1.6124   -2.1965 H   0  0  0  0  0  0  0  0  0  0  0  0
   -5.3895    3.5515   -2.0568 H   0  0  0  0  0  0  0  0  0  0  0  0
    6.1443   -4.3103    0.3269 H   0  0  0  0  0  0  0  0  0  0  0  0
    6.4831   -3.3638   -1.0709 H   0  0  0  0  0  0  0  0  0  0  0  0
    6.4525    3.6661    2.4816 H   0  0  0  0  0  0  0  0  0  0  0  0
    5.7884    3.8599    0.8438 H   0  0  0  0  0  0  0  0  0  0  0  0
    6.9927    2.5910    1.1606 H   0  0  0  0  0  0  0  0  0  0  0  0
    6.3268    0.5826    2.5201 H   0  0  0  0  0  0  0  0  0  0  0  0
    4.6625    0.4800    3.1415 H   0  0  0  0  0  0  0  0  0  0  0  0
    5.7943    1.6624    3.8419 H   0  0  0  0  0  0  0  0  0  0  0  0
  1  5  2  0  0  0  0
  1  6  2  0  0  0  0
  1 14  1  0  0  0  0
  1 34  1  0  0  0  0
  2 25  1  0  0  0  0
  2 67  1  0  0  0  0
  3 25  2  0  0  0  0
  4 33  1  0  0  0  0
  4 39  1  0  0  0  0
  7 39  2  0  0  0  0
  8 17  1  0  0  0  0
  8 23  1  0  0  0  0
  8 48  1  0  0  0  0
  9 19  1  0  0  0  0
  9 24  1  0  0  0  0
  9 55  1  0  0  0  0
 10 23  1  0  0  0  0
 10 24  2  0  0  0  0
 11 28  1  0  0  0  0
 11 29  1  0  0  0  0
 11 60  1  0  0  0  0
 12 23  2  0  0  0  0
 12 29  1  0  0  0  0
 13 24  1  0  0  0  0
 13 29  2  0  0  0  0
 14 68  1  0  0  0  0
 14 69  1  0  0  0  0
 15 39  1  0  0  0  0
 15 40  1  0  0  0  0
 15 41  1  0  0  0  0
 16 19  1  0  0  0  0
 16 21  1  0  0  0  0
 16 22  1  0  0  0  0
 16 42  1  0  0  0  0
 17 18  1  0  0  0  0
 17 25  1  0  0  0  0
 17 43  1  0  0  0  0
 18 20  1  0  0  0  0
 18 44  1  0  0  0  0
 18 45  1  0  0  0  0
 19 46  1  0  0  0  0
 19 47  1  0  0  0  0
 20 26  2  0  0  0  0
 20 27  1  0  0  0  0
 21 49  1  0  0  0  0
 21 50  1  0  0  0  0
 21 51  1  0  0  0  0
 22 52  1  0  0  0  0
 22 53  1  0  0  0  0
 22 54  1  0  0  0  0
 26 31  1  0  0  0  0
 26 56  1  0  0  0  0
 27 32  2  0  0  0  0
 27 57  1  0  0  0  0
 28 30  1  0  0  0  0
 28 58  1  0  0  0  0
 28 59  1  0  0  0  0
 30 35  2  0  0  0  0
 30 36  1  0  0  0  0
 31 33  2  0  0  0  0
 31 61  1  0  0  0  0
 32 33  1  0  0  0  0
 32 62  1  0  0  0  0
 34 37  2  0  0  0  0
 34 38  1  0  0  0  0
 35 37  1  0  0  0  0
 35 63  1  0  0  0  0
 36 38  2  0  0  0  0
 36 64  1  0  0  0  0
 37 65  1  0  0  0  0
 38 66  1  0  0  0  0
 40 70  1  0  0  0  0
 40 71  1  0  0  0  0
 40 72  1  0  0  0  0
 41 73  1  0  0  0  0
 41 74  1  0  0  0  0
 41 75  1  0  0  0  0
M  END
> <PUBCHEM_COMPOUND_CID>
10188619

> <PUBCHEM_CONFORMER_RMSD>
1.4

> <PUBCHEM_CONFORMER_DIVERSEORDER>
3
25
63
47
24
20
11
16
39
84
37
50
5
57
52
66
82
46
9
70
81
23
77
78
59
62
49
22
40
45
12
64
6
21
27
71
73
48
29
53
8
58
28
68
55
17
1
38
30
61
72
42
56
54
43
74
65
34
13
80
41
26
44
75
18
19
69
7
36
2
14
51
4
67
79
32
33
35
83
10
31
60
76
15

> <PUBCHEM_MMFF94_PARTIAL_CHARGES>
52
1 1.45
10 -0.62
11 -0.87
12 -0.62
13 -0.62
14 -0.98
15 -0.66
17 0.43
18 0.14
19 0.37
2 -0.65
20 -0.14
23 0.72
24 0.72
25 0.66
26 -0.15
27 -0.15
28 0.51
29 0.72
3 -0.57
30 -0.14
31 -0.15
32 -0.15
33 0.08
34 -0.01
35 -0.15
36 -0.15
37 -0.15
38 -0.15
39 0.78
4 -0.23
40 0.3
41 0.3
48 0.4
5 -0.65
55 0.4
56 0.15
57 0.15
6 -0.65
60 0.4
61 0.15
62 0.15
63 0.15
64 0.15
65 0.15
66 0.15
67 0.5
68 0.42
69 0.42
7 -0.57
8 -0.87
9 -0.87

> <PUBCHEM_EFFECTIVE_ROTOR_COUNT>
15

> <PUBCHEM_PHARMACOPHORE_FEATURES>
17
1 11 donor
1 14 donor
1 2 acceptor
1 3 acceptor
1 5 acceptor
1 6 acceptor
1 7 acceptor
1 8 donor
1 9 donor
3 16 21 22 hydrophobe
3 2 3 25 anion
4 11 12 13 29 cation
4 8 10 12 23 cation
4 9 10 13 24 cation
6 10 12 13 23 24 29 rings
6 20 26 27 31 32 33 rings
6 30 34 35 36 37 38 rings

> <PUBCHEM_HEAVY_ATOM_COUNT>
41

> <PUBCHEM_ATOM_DEF_STEREO_COUNT>
1

> <PUBCHEM_ATOM_UDEF_STEREO_COUNT>
0

> <PUBCHEM_BOND_DEF_STEREO_COUNT>
0

> <PUBCHEM_BOND_UDEF_STEREO_COUNT>
0

> <PUBCHEM_ISOTOPIC_ATOM_COUNT>
0

> <PUBCHEM_COMPONENT_COUNT>
1

> <PUBCHEM_CACTVS_TAUTO_COUNT>
17

> <PUBCHEM_CONFORMER_ID>
009B774B00000003

> <PUBCHEM_MMFF94_ENERGY>
99.1831

> <PUBCHEM_FEATURE_SELFOVERLAP>
86.481

> <PUBCHEM_SHAPE_FINGERPRINT>
10049733 135 17388857238016669609
10049733 57 18410008798079348277
10653451 467 18191591848683616077
11170278 141 18186804711867362387
11399510 152 17967813791115416282
12218070 45 17331663057023048232
12422481 6 18336836376607921777
13402501 40 17980743962253224860
15064986 96 18334013926328489601
15406563 190 18186238442216068236
15406563 47 18117532081782564964
15722582 15 17899992538993212753
16067689 391 16477691647347979182
19311894 1 14381537432421504687
19611394 137 18116445734783244339
20764821 26 18267839771480917924
4112364 45 17630914645999910377
42626532 9 18047467829823002658
437795 96 18337934715529952932
50080093 196 17904180874808867042
6004065 56 18124289655014422773

> <PUBCHEM_SHAPE_MULTIPOLES>
772.55
14.36
7.25
3.34
6.79
0.27
-2.67
-1.32
-15.82
-6.6
2.98
4.48
0.57
5.11

> <PUBCHEM_SHAPE_SELFOVERLAP>
1607.421

> <PUBCHEM_SHAPE_VOLUME>
440.6

> <PUBCHEM_COORDINATE_TYPE>
2
5
10

$$$$
