21677322
  -OEChem-02172602473D

 36 37  0     1  0  0  0  0  0999 V2000
    0.5542    0.4994    0.4160 S   0  0  1  0  0  0  0  0  0  0  0  0
   -1.2857   -1.8740    0.8685 S   0  0  0  0  0  0  0  0  0  0  0  0
    0.6273    1.8068   -0.3183 O   0  0  0  0  0  0  0  0  0  0  0  0
   -2.6846   -2.3596   -1.3188 O   0  0  0  0  0  0  0  0  0  0  0  0
   -1.0133   -0.3393   -0.0948 C   0  0  1  0  0  0  0  0  0  0  0  0
    1.6958   -0.6346   -0.4177 C   0  0  0  0  0  0  0  0  0  0  0  0
   -2.1843    0.6192    0.0262 C   0  0  0  0  0  0  0  0  0  0  0  0
    3.1274   -0.2360   -0.2052 C   0  0  0  0  0  0  0  0  0  0  0  0
   -2.8856    1.0112   -1.1142 C   0  0  0  0  0  0  0  0  0  0  0  0
   -2.5594    1.1079    1.2778 C   0  0  0  0  0  0  0  0  0  0  0  0
    3.8362   -0.7372    0.8868 C   0  0  0  0  0  0  0  0  0  0  0  0
    3.7493    0.6350   -1.0998 C   0  0  0  0  0  0  0  0  0  0  0  0
   -3.9616    1.8917   -1.0031 C   0  0  0  0  0  0  0  0  0  0  0  0
   -3.6356    1.9884    1.3888 C   0  0  0  0  0  0  0  0  0  0  0  0
   -4.3367    2.3803    0.2482 C   0  0  0  0  0  0  0  0  0  0  0  0
    5.1665   -0.3673    1.0842 C   0  0  0  0  0  0  0  0  0  0  0  0
    5.0797    1.0048   -0.9023 C   0  0  0  0  0  0  0  0  0  0  0  0
    5.7882    0.5037    0.1897 C   0  0  0  0  0  0  0  0  0  0  0  0
   -2.3357   -2.7779   -0.2217 C   0  0  0  0  0  0  0  0  0  0  0  0
   -2.7422   -4.1226    0.3097 C   0  0  0  0  0  0  0  0  0  0  0  0
   -0.8650   -0.6049   -1.1472 H   0  0  0  0  0  0  0  0  0  0  0  0
    1.5381   -1.6495   -0.0396 H   0  0  0  0  0  0  0  0  0  0  0  0
    1.4622   -0.6498   -1.4883 H   0  0  0  0  0  0  0  0  0  0  0  0
   -2.6047    0.6399   -2.0961 H   0  0  0  0  0  0  0  0  0  0  0  0
   -2.0263    0.8209    2.1803 H   0  0  0  0  0  0  0  0  0  0  0  0
    3.3628   -1.4155    1.5918 H   0  0  0  0  0  0  0  0  0  0  0  0
    3.2082    1.0330   -1.9542 H   0  0  0  0  0  0  0  0  0  0  0  0
   -4.5074    2.1971   -1.8911 H   0  0  0  0  0  0  0  0  0  0  0  0
   -3.9271    2.3699    2.3630 H   0  0  0  0  0  0  0  0  0  0  0  0
   -5.1743    3.0661    0.3347 H   0  0  0  0  0  0  0  0  0  0  0  0
    5.7181   -0.7571    1.9347 H   0  0  0  0  0  0  0  0  0  0  0  0
    5.5640    1.6832   -1.5986 H   0  0  0  0  0  0  0  0  0  0  0  0
    6.8240    0.7918    0.3436 H   0  0  0  0  0  0  0  0  0  0  0  0
   -1.8627   -4.7592    0.4395 H   0  0  0  0  0  0  0  0  0  0  0  0
   -3.4162   -4.6045   -0.4050 H   0  0  0  0  0  0  0  0  0  0  0  0
   -3.2730   -4.0112    1.2593 H   0  0  0  0  0  0  0  0  0  0  0  0
  1  3  2  0  0  0  0
  1  5  1  0  0  0  0
  1  6  1  0  0  0  0
  2  5  1  0  0  0  0
  2 19  1  0  0  0  0
  4 19  2  0  0  0  0
  5  7  1  0  0  0  0
  5 21  1  0  0  0  0
  6  8  1  0  0  0  0
  6 22  1  0  0  0  0
  6 23  1  0  0  0  0
  7  9  2  0  0  0  0
  7 10  1  0  0  0  0
  8 11  2  0  0  0  0
  8 12  1  0  0  0  0
  9 13  1  0  0  0  0
  9 24  1  0  0  0  0
 10 14  2  0  0  0  0
 10 25  1  0  0  0  0
 11 16  1  0  0  0  0
 11 26  1  0  0  0  0
 12 17  2  0  0  0  0
 12 27  1  0  0  0  0
 13 15  2  0  0  0  0
 13 28  1  0  0  0  0
 14 15  1  0  0  0  0
 14 29  1  0  0  0  0
 15 30  1  0  0  0  0
 16 18  2  0  0  0  0
 16 31  1  0  0  0  0
 17 18  1  0  0  0  0
 17 32  1  0  0  0  0
 18 33  1  0  0  0  0
 19 20  1  0  0  0  0
 20 34  1  0  0  0  0
 20 35  1  0  0  0  0
 20 36  1  0  0  0  0
M  END
> <PUBCHEM_COMPOUND_CID>
21677322

> <PUBCHEM_CONFORMER_RMSD>
0.8

> <PUBCHEM_CONFORMER_DIVERSEORDER>
1
214
88
147
169
86
228
3
74
172
42
235
154
151
174
79
95
135
155
102
59
138
150
170
145
243
179
116
35
202
194
84
68
97
109
201
44
220
144
92
148
229
18
222
188
99
20
187
130
140
213
11
37
117
75
175
192
238
131
197
85
90
96
105
181
43
199
177
164
28
76
180
72
101
61
216
141
67
218
123
240
195
209
221
73
225
39
112
80
223
83
111
54
153
178
81
239
5
24
55
242
176
106
14
71
149
94
51
165
224
198
234
236
41
69
158
206
162
186
48
113
23
16
171
152
217
193
212
40
185
205
136
211
104
215
70
118
200
77
82
196
4
33
182
207
21
13
98
58
133
38
232
7
66
161
9
108
47
64
227
89
203
127
46
128
231
183
143
45
125
137
30
246
126
31
230
91
210
65
241
168
219
25
134
166
8
103
208
53
146
129
56
63
132
93
87
139
100
2
115
226
12
52
10
157
142
244
189
34
110
114
120
191
32
36
50
190
107
237
119
163
122
204
62
49
121
245
156
167
15
184
160
26
78
27
17
6
29
233
124
57
173
159
60
19
22

> <PUBCHEM_MMFF94_PARTIAL_CHARGES>
30
1 0.11
10 -0.15
11 -0.15
12 -0.15
13 -0.15
14 -0.15
15 -0.15
16 -0.15
17 -0.15
18 -0.15
19 0.65
2 -0.37
20 0.06
24 0.15
25 0.15
26 0.15
27 0.15
28 0.15
29 0.15
3 -0.5
30 0.15
31 0.15
32 0.15
33 0.15
4 -0.57
5 0.57
6 0.34
7 -0.14
8 -0.14
9 -0.15

> <PUBCHEM_EFFECTIVE_ROTOR_COUNT>
6

> <PUBCHEM_PHARMACOPHORE_FEATURES>
3
1 3 acceptor
6 7 9 10 13 14 15 rings
6 8 11 12 16 17 18 rings

> <PUBCHEM_HEAVY_ATOM_COUNT>
20

> <PUBCHEM_ATOM_DEF_STEREO_COUNT>
0

> <PUBCHEM_ATOM_UDEF_STEREO_COUNT>
2

> <PUBCHEM_BOND_DEF_STEREO_COUNT>
0

> <PUBCHEM_BOND_UDEF_STEREO_COUNT>
0

> <PUBCHEM_ISOTOPIC_ATOM_COUNT>
0

> <PUBCHEM_COMPONENT_COUNT>
1

> <PUBCHEM_CACTVS_TAUTO_COUNT>
1

> <PUBCHEM_CONFORMER_ID>
014AC50A00000001

> <PUBCHEM_MMFF94_ENERGY>
41.7501

> <PUBCHEM_FEATURE_SELFOVERLAP>
15.223

> <PUBCHEM_SHAPE_FINGERPRINT>
10014705 185 18334856117173968140
10291535 26 17703790310104552016
10366900 7 17489582329969382712
11056379 131 18268439095207160694
11545043 162 18060142072476340466
12107183 9 18117548532203388234
12346177 29 18341610442725396366
12403814 3 17603868879679570381
12616971 3 17675925396366197028
12633257 1 18335137575271639612
12788726 201 18339348773520723803
13004483 165 18051979418026154963
13052359 8 18410855460634875931
13583140 156 17385447608966242593
13631057 29 18265893755864030106
13675066 3 16877667820854187592
14251757 5 18337950220441707663
14790565 3 18195248810724208505
15375358 24 17988926639467014412
15463212 79 18261101959524952067
15806764 133 17345765212781955856
17539 30 18268986660898775743
204376 136 18336831866744229889
21033648 144 18338223951687453148
21236236 1 18410854395071555822
21424621 283 17987242127482100241
21426921 1 18338800125343674095
22182313 1 17774744011859403022
22224240 67 18270974449531465313
23503953 91 18334572426447638168
23557571 272 18202014247629519798
23558518 356 18116718619292151961
23559900 14 18197765807477276233
23598288 3 18269560601114085223
25147074 1 18043263520242479468
268830 7 17312820515867094228
283562 15 18263923413731505899
350125 39 18337678615330965793
5104073 3 18336256925753815304
53917941 68 18337378384047281741
559249 180 18335132060459849882
573450 72 18334286591973711554
5924683 9 18336543923293986106
59755656 520 18340770330090025183
633830 44 17770228158943238629
7615 1 17968946421488367726
9981440 41 17703504402806435935

> <PUBCHEM_SHAPE_MULTIPOLES>
407.55
11.55
3.36
1.25
15
3.85
-0.05
-4.61
-0.29
-6.32
0.03
-0.32
-0.22
-1.01

> <PUBCHEM_SHAPE_SELFOVERLAP>
822.918

> <PUBCHEM_SHAPE_VOLUME>
237.2

> <PUBCHEM_COORDINATE_TYPE>
2
5
10

$$$$
