906143
  -OEChem-02172602563D

 21 23  0     0  0  0  0  0  0999 V2000
    2.9966   -0.3124   -0.0005 N   0  0  0  0  0  0  0  0  0  0  0  0
   -2.4671   -0.9747    0.0001 N   0  0  0  0  0  0  0  0  0  0  0  0
    0.9203    0.5149    0.0002 C   0  0  0  0  0  0  0  0  0  0  0  0
   -0.5012    0.4141    0.0004 C   0  0  0  0  0  0  0  0  0  0  0  0
    1.6661   -0.6646   -0.0002 C   0  0  0  0  0  0  0  0  0  0  0  0
   -1.1270   -0.8531    0.0003 C   0  0  0  0  0  0  0  0  0  0  0  0
    1.8591    1.5903    0.0003 C   0  0  0  0  0  0  0  0  0  0  0  0
    1.0723   -1.9274   -0.0001 C   0  0  0  0  0  0  0  0  0  0  0  0
   -0.3266   -1.9890    0.0002 C   0  0  0  0  0  0  0  0  0  0  0  0
    3.1238    1.0493    0.0001 C   0  0  0  0  0  0  0  0  0  0  0  0
   -1.3110    1.5642    0.0000 C   0  0  0  0  0  0  0  0  0  0  0  0
   -2.6916    1.4335   -0.0004 C   0  0  0  0  0  0  0  0  0  0  0  0
   -3.2137    0.1548   -0.0003 C   0  0  0  0  0  0  0  0  0  0  0  0
    1.6365    2.6486    0.0006 H   0  0  0  0  0  0  0  0  0  0  0  0
    1.6683   -2.8341   -0.0003 H   0  0  0  0  0  0  0  0  0  0  0  0
    3.7672   -0.9663   -0.0009 H   0  0  0  0  0  0  0  0  0  0  0  0
   -0.7945   -2.9729    0.0002 H   0  0  0  0  0  0  0  0  0  0  0  0
    4.1004    1.5124    0.0000 H   0  0  0  0  0  0  0  0  0  0  0  0
   -0.8769    2.5604   -0.0001 H   0  0  0  0  0  0  0  0  0  0  0  0
   -3.3371    2.3039   -0.0008 H   0  0  0  0  0  0  0  0  0  0  0  0
   -4.2870   -0.0058   -0.0005 H   0  0  0  0  0  0  0  0  0  0  0  0
  1  5  1  0  0  0  0
  1 10  1  0  0  0  0
  1 16  1  0  0  0  0
  2  6  1  0  0  0  0
  2 13  2  0  0  0  0
  3  4  1  0  0  0  0
  3  5  2  0  0  0  0
  3  7  1  0  0  0  0
  4  6  2  0  0  0  0
  4 11  1  0  0  0  0
  5  8  1  0  0  0  0
  6  9  1  0  0  0  0
  7 10  2  0  0  0  0
  7 14  1  0  0  0  0
  8  9  2  0  0  0  0
  8 15  1  0  0  0  0
  9 17  1  0  0  0  0
 10 18  1  0  0  0  0
 11 12  2  0  0  0  0
 11 19  1  0  0  0  0
 12 13  1  0  0  0  0
 12 20  1  0  0  0  0
 13 21  1  0  0  0  0
M  END
> <PUBCHEM_COMPOUND_CID>
906143

> <PUBCHEM_CONFORMER_RMSD>
0.4

> <PUBCHEM_CONFORMER_DIVERSEORDER>
1

> <PUBCHEM_MMFF94_PARTIAL_CHARGES>
19
1 0.03
10 -0.3
11 -0.15
12 -0.15
13 0.16
14 0.15
15 0.15
16 0.27
17 0.15
18 0.15
19 0.15
2 -0.62
20 0.15
21 0.15
5 -0.15
6 0.31
7 -0.15
8 -0.15
9 -0.15

> <PUBCHEM_EFFECTIVE_ROTOR_COUNT>
0

> <PUBCHEM_PHARMACOPHORE_FEATURES>
6
1 1 cation
1 1 donor
1 2 acceptor
5 1 3 5 7 10 rings
6 2 4 6 11 12 13 rings
6 3 4 5 6 8 9 rings

> <PUBCHEM_HEAVY_ATOM_COUNT>
13

> <PUBCHEM_ATOM_DEF_STEREO_COUNT>
0

> <PUBCHEM_ATOM_UDEF_STEREO_COUNT>
0

> <PUBCHEM_BOND_DEF_STEREO_COUNT>
0

> <PUBCHEM_BOND_UDEF_STEREO_COUNT>
0

> <PUBCHEM_ISOTOPIC_ATOM_COUNT>
0

> <PUBCHEM_COMPONENT_COUNT>
1

> <PUBCHEM_CACTVS_TAUTO_COUNT>
2

> <PUBCHEM_CONFORMER_ID>
000DD39F00000001

> <PUBCHEM_MMFF94_ENERGY>
30.6919

> <PUBCHEM_FEATURE_SELFOVERLAP>
30.564

> <PUBCHEM_SHAPE_FINGERPRINT>
10608611 8 18410290285471832677
10967382 1 18410575071799289029
11132069 177 18412256259432804201
11471102 20 18338794499326627269
12897270 3 18410855460270716573
13380535 21 18339093591963663451
13380535 76 18410008836206721642
13897977 150 18410290281461455189
14144814 61 18409729551689582416
14325111 11 18410575084684450752
15775835 57 18412269432139718417
16945 1 18410573980898824775
17844478 74 18188221965349516057
17990270 104 18195245507772362827
18186145 218 18272376351598093088
193761 8 17617941331403148996
19973954 147 18339364037490738217
20510252 161 18271811288446857641
20871998 184 18055641860808189279
21501502 16 18338795598648253403
2334 1 18410573963681928400
23402539 116 18270104846352842575
23402655 69 18269541768436944173
23463225 33 18262514797738709410
23552423 10 18336546006400389455
23559900 14 18271816718524982588
2748010 2 18338238167432356543
5084963 1 18202566180759620698
528886 8 18410851070682154449
53812653 166 18342734109391670144
63268167 104 18267587913992116089
7364860 26 18198341758428486654

> <PUBCHEM_SHAPE_MULTIPOLES>
257.57
4.62
2.06
0.6
0.25
0.44
0
-1.42
0
-0.09
0
0
-0.01
0

> <PUBCHEM_SHAPE_SELFOVERLAP>
588.529

> <PUBCHEM_SHAPE_VOLUME>
134.4

> <PUBCHEM_COORDINATE_TYPE>
2
5
10

$$$$
