117621
  -OEChem-02172602483D

 58 61  0     0  0  0  0  0  0999 V2000
    3.2507    1.1181    0.3731 O   0  0  0  0  0  0  0  0  0  0  0  0
   -1.8346    2.6970   -0.0662 O   0  0  0  0  0  0  0  0  0  0  0  0
    2.5816   -1.3317    0.9748 N   0  0  0  0  0  0  0  0  0  0  0  0
   -2.7636    0.3270    0.5091 N   0  0  0  0  0  0  0  0  0  0  0  0
    4.5073   -3.4002   -1.1242 N   0  0  0  0  0  0  0  0  0  0  0  0
    0.9701    0.4875    0.5079 C   0  0  0  0  0  0  0  0  0  0  0  0
   -0.3590    0.9000    0.3925 C   0  0  0  0  0  0  0  0  0  0  0  0
    1.2626   -0.8409    0.8395 C   0  0  0  0  0  0  0  0  0  0  0  0
    2.8708   -2.6888    1.3136 C   0  0  0  0  0  0  0  0  0  0  0  0
   -1.3957   -0.0160    0.6082 C   0  0  0  0  0  0  0  0  0  0  0  0
    4.3786   -2.9381    1.3071 C   0  0  0  0  0  0  0  0  0  0  0  0
    2.0736    1.4433    0.2825 C   0  0  0  0  0  0  0  0  0  0  0  0
    1.7508    2.8419   -0.0663 C   0  0  0  0  0  0  0  0  0  0  0  0
    0.4216    3.2545   -0.1813 C   0  0  0  0  0  0  0  0  0  0  0  0
   -0.6818    2.2987    0.0441 C   0  0  0  0  0  0  0  0  0  0  0  0
    5.0705   -2.6275   -0.0238 C   0  0  0  0  0  0  0  0  0  0  0  0
    0.2265   -1.7504    1.0538 C   0  0  0  0  0  0  0  0  0  0  0  0
   -1.0998   -1.3388    0.9383 C   0  0  0  0  0  0  0  0  0  0  0  0
    2.7875    3.7578   -0.2821 C   0  0  0  0  0  0  0  0  0  0  0  0
    0.1291    4.5830   -0.5122 C   0  0  0  0  0  0  0  0  0  0  0  0
   -3.9046   -0.4105    0.1464 C   0  0  0  0  0  0  0  0  0  0  0  0
    2.4915    5.0809   -0.6114 C   0  0  0  0  0  0  0  0  0  0  0  0
    1.1652    5.4925   -0.7264 C   0  0  0  0  0  0  0  0  0  0  0  0
    4.7096   -4.8335   -0.9044 C   0  0  0  0  0  0  0  0  0  0  0  0
    5.1029   -2.9933   -2.3983 C   0  0  0  0  0  0  0  0  0  0  0  0
   -5.1504   -0.0897    0.6912 C   0  0  0  0  0  0  0  0  0  0  0  0
   -3.7974   -1.4675   -0.7606 C   0  0  0  0  0  0  0  0  0  0  0  0
   -6.1713   -1.8762   -0.5750 C   0  0  0  0  0  0  0  0  0  0  0  0
   -6.2820   -0.8215    0.3309 C   0  0  0  0  0  0  0  0  0  0  0  0
   -4.9290   -2.1992   -1.1207 C   0  0  0  0  0  0  0  0  0  0  0  0
   -7.3811   -2.6587   -0.9601 C   0  0  0  0  0  0  0  0  0  0  0  0
    2.3982   -3.3832    0.6093 H   0  0  0  0  0  0  0  0  0  0  0  0
    2.4962   -2.9187    2.3185 H   0  0  0  0  0  0  0  0  0  0  0  0
    4.8385   -2.2968    2.0717 H   0  0  0  0  0  0  0  0  0  0  0  0
    4.5830   -3.9641    1.6330 H   0  0  0  0  0  0  0  0  0  0  0  0
    3.3356   -0.6569    0.9468 H   0  0  0  0  0  0  0  0  0  0  0  0
    4.9739   -1.5555   -0.2348 H   0  0  0  0  0  0  0  0  0  0  0  0
    6.1465   -2.8208    0.0828 H   0  0  0  0  0  0  0  0  0  0  0  0
    0.3902   -2.7884    1.3251 H   0  0  0  0  0  0  0  0  0  0  0  0
   -1.8778   -2.0689    1.1446 H   0  0  0  0  0  0  0  0  0  0  0  0
   -2.9676    1.2792    0.7974 H   0  0  0  0  0  0  0  0  0  0  0  0
    3.8304    3.4643   -0.1992 H   0  0  0  0  0  0  0  0  0  0  0  0
   -0.8957    4.9314   -0.6083 H   0  0  0  0  0  0  0  0  0  0  0  0
    3.2961    5.7911   -0.7787 H   0  0  0  0  0  0  0  0  0  0  0  0
    0.9375    6.5231   -0.9831 H   0  0  0  0  0  0  0  0  0  0  0  0
    4.1141   -5.2084   -0.0667 H   0  0  0  0  0  0  0  0  0  0  0  0
    5.7628   -5.0845   -0.7331 H   0  0  0  0  0  0  0  0  0  0  0  0
    4.3682   -5.4031   -1.7772 H   0  0  0  0  0  0  0  0  0  0  0  0
    4.6450   -3.5401   -3.2300 H   0  0  0  0  0  0  0  0  0  0  0  0
    6.1848   -3.1677   -2.4234 H   0  0  0  0  0  0  0  0  0  0  0  0
    4.9198   -1.9294   -2.5865 H   0  0  0  0  0  0  0  0  0  0  0  0
   -5.2501    0.7292    1.3993 H   0  0  0  0  0  0  0  0  0  0  0  0
   -2.8486   -1.7268   -1.2225 H   0  0  0  0  0  0  0  0  0  0  0  0
   -7.2440   -0.5614    0.7646 H   0  0  0  0  0  0  0  0  0  0  0  0
   -4.8308   -3.0164   -1.8305 H   0  0  0  0  0  0  0  0  0  0  0  0
   -7.2973   -3.0371   -1.9845 H   0  0  0  0  0  0  0  0  0  0  0  0
   -8.2825   -2.0377   -0.9211 H   0  0  0  0  0  0  0  0  0  0  0  0
   -7.5107   -3.5079   -0.2819 H   0  0  0  0  0  0  0  0  0  0  0  0
  1 12  2  0  0  0  0
  2 15  2  0  0  0  0
  3  8  1  0  0  0  0
  3  9  1  0  0  0  0
  3 36  1  0  0  0  0
  4 10  1  0  0  0  0
  4 21  1  0  0  0  0
  4 41  1  0  0  0  0
  5 16  1  0  0  0  0
  5 24  1  0  0  0  0
  5 25  1  0  0  0  0
  6  7  1  0  0  0  0
  6  8  2  0  0  0  0
  6 12  1  0  0  0  0
  7 10  2  0  0  0  0
  7 15  1  0  0  0  0
  8 17  1  0  0  0  0
  9 11  1  0  0  0  0
  9 32  1  0  0  0  0
  9 33  1  0  0  0  0
 10 18  1  0  0  0  0
 11 16  1  0  0  0  0
 11 34  1  0  0  0  0
 11 35  1  0  0  0  0
 12 13  1  0  0  0  0
 13 14  1  0  0  0  0
 13 19  2  0  0  0  0
 14 15  1  0  0  0  0
 14 20  2  0  0  0  0
 16 37  1  0  0  0  0
 16 38  1  0  0  0  0
 17 18  2  0  0  0  0
 17 39  1  0  0  0  0
 18 40  1  0  0  0  0
 19 22  1  0  0  0  0
 19 42  1  0  0  0  0
 20 23  1  0  0  0  0
 20 43  1  0  0  0  0
 21 26  2  0  0  0  0
 21 27  1  0  0  0  0
 22 23  2  0  0  0  0
 22 44  1  0  0  0  0
 23 45  1  0  0  0  0
 24 46  1  0  0  0  0
 24 47  1  0  0  0  0
 24 48  1  0  0  0  0
 25 49  1  0  0  0  0
 25 50  1  0  0  0  0
 25 51  1  0  0  0  0
 26 29  1  0  0  0  0
 26 52  1  0  0  0  0
 27 30  2  0  0  0  0
 27 53  1  0  0  0  0
 28 29  2  0  0  0  0
 28 30  1  0  0  0  0
 28 31  1  0  0  0  0
 29 54  1  0  0  0  0
 30 55  1  0  0  0  0
 31 56  1  0  0  0  0
 31 57  1  0  0  0  0
 31 58  1  0  0  0  0
M  END
> <PUBCHEM_COMPOUND_CID>
117621

> <PUBCHEM_CONFORMER_RMSD>
1

> <PUBCHEM_CONFORMER_DIVERSEORDER>
1
7
14
18
19
3
8
10
12
16
15
20
11
17
9
6
4
5
2
13

> <PUBCHEM_MMFF94_PARTIAL_CHARGES>
42
1 -0.57
10 0.1
12 0.4
13 0.09
14 0.09
15 0.4
16 0.27
17 -0.15
18 -0.15
19 -0.15
2 -0.57
20 -0.15
21 0.1
22 -0.15
23 -0.15
24 0.27
25 0.27
26 -0.15
27 -0.15
28 -0.14
29 -0.15
3 -0.87
30 -0.15
31 0.14
36 0.4
39 0.15
4 -0.6
40 0.15
41 0.4
42 0.15
43 0.15
44 0.15
45 0.15
5 -0.81
52 0.15
53 0.15
54 0.15
55 0.15
6 0.09
7 0.09
8 0.1
9 0.37

> <PUBCHEM_EFFECTIVE_ROTOR_COUNT>
7

> <PUBCHEM_PHARMACOPHORE_FEATURES>
11
1 1 acceptor
1 2 acceptor
1 3 cation
1 3 donor
1 4 cation
1 4 donor
1 5 cation
6 13 14 19 20 22 23 rings
6 21 26 27 28 29 30 rings
6 6 7 12 13 14 15 rings
6 6 7 8 10 17 18 rings

> <PUBCHEM_HEAVY_ATOM_COUNT>
31

> <PUBCHEM_ATOM_DEF_STEREO_COUNT>
0

> <PUBCHEM_ATOM_UDEF_STEREO_COUNT>
0

> <PUBCHEM_BOND_DEF_STEREO_COUNT>
0

> <PUBCHEM_BOND_UDEF_STEREO_COUNT>
0

> <PUBCHEM_ISOTOPIC_ATOM_COUNT>
0

> <PUBCHEM_COMPONENT_COUNT>
1

> <PUBCHEM_CACTVS_TAUTO_COUNT>
9

> <PUBCHEM_CONFORMER_ID>
0001CB7500000001

> <PUBCHEM_MMFF94_ENERGY>
119.6977

> <PUBCHEM_FEATURE_SELFOVERLAP>
55.863

> <PUBCHEM_SHAPE_FINGERPRINT>
10411042 1 18263354815768911850
10622 236 17914874656323772815
10693767 8 18341895207568474014
11297010 23 18120925372497654653
11331351 85 18129106628203668625
11377469 6 18201441325031692931
11763715 3 18119828927603153966
12342043 65 17487332643549359522
12422481 6 17274815805731495159
12623949 98 17917990560248725134
12788726 201 17755587036116346098
13009979 54 18131073706213912875
13140716 1 17901102241544056744
13540713 5 18272380802144314785
13690498 29 18122634846996828982
13757389 114 17763757489700555180
13785724 45 18339928117147080997
138480 1 18335135393006318632
14347332 77 18121500146575805490
14790565 3 17758396658025414073
15198563 99 18121781634272985428
15444296 8 18125725590834363029
15484559 13 18118963835479907732
15705408 1 18334295387776564757
16087824 20 17759517773750678317
1813 80 18341328894745213482
19319366 153 17980475990807023797
20028762 73 18124027090647249228
20775438 99 18194672894354275759
21033648 144 17318992216246441445
21033648 29 16300326476344344887
22311459 1 18263641930291149352
23559900 14 18262232351862098027
24771293 8 18341606028073796016
24771750 20 17827374485533561172
255183 451 18341896277141638959
3103668 31 17974003947454264117
335352 9 17973723872632123612
3388396 114 18045817575060321006
376196 1 17610611299560522889
4017518 198 17982456203249869468
474 4 17974563904021071705
5265222 85 15671798994425787931
6058803 2 18200317749176306657
6700243 42 17769674009547060926
70251023 43 18411704291779168225

> <PUBCHEM_SHAPE_MULTIPOLES>
611.28
13.37
7.79
1.29
21.7
7.4
0.37
-19.53
4.52
-13.11
3.09
-1.1
-1.35
-0.32

> <PUBCHEM_SHAPE_SELFOVERLAP>
1334.649

> <PUBCHEM_SHAPE_VOLUME>
332.5

> <PUBCHEM_COORDINATE_TYPE>
2
5
10

$$$$
