102072111
  -OEChem-02172602513D

 32 31  0     0  0  0  0  0  0999 V2000
    2.2877   -2.3369    0.0012 Cl  0  0  0  0  0  0  0  0  0  0  0  0
   -2.2918    2.3405   -0.0012 Cl  0  0  0  0  0  0  0  0  0  0  0  0
    0.2181   -0.6557   -0.0028 N   0  0  0  0  0  0  0  0  0  0  0  0
   -0.2228    0.6589   -0.0010 N   0  0  0  0  0  0  0  0  0  0  0  0
    2.4289    0.4431    0.0025 C   0  0  0  0  0  0  0  0  0  0  0  0
   -2.4339   -0.4395   -0.0063 C   0  0  0  0  0  0  0  0  0  0  0  0
    2.1762    1.2828   -1.2590 C   0  0  0  0  0  0  0  0  0  0  0  0
    2.1699    1.2855    1.2609 C   0  0  0  0  0  0  0  0  0  0  0  0
    3.9096    0.0141    0.0077 C   0  0  0  0  0  0  0  0  0  0  0  0
   -2.1407   -1.3046   -1.2414 C   0  0  0  0  0  0  0  0  0  0  0  0
   -2.1926   -1.2978    1.2513 C   0  0  0  0  0  0  0  0  0  0  0  0
   -3.9041    0.0062   -0.0080 C   0  0  0  0  0  0  0  0  0  0  0  0
    1.5089   -0.7912   -0.0013 C   0  0  0  0  0  0  0  0  0  0  0  0
   -1.5134    0.7947   -0.0025 C   0  0  0  0  0  0  0  0  0  0  0  0
    1.3014    1.9357   -1.2010 H   0  0  0  0  0  0  0  0  0  0  0  0
    3.0233    1.9521   -1.4543 H   0  0  0  0  0  0  0  0  0  0  0  0
    2.0578    0.6438   -2.1418 H   0  0  0  0  0  0  0  0  0  0  0  0
    3.0188    1.9503    1.4634 H   0  0  0  0  0  0  0  0  0  0  0  0
    1.2996    1.9435    1.1939 H   0  0  0  0  0  0  0  0  0  0  0  0
    2.0397    0.6481    2.1432 H   0  0  0  0  0  0  0  0  0  0  0  0
    4.1695   -0.5653    0.9013 H   0  0  0  0  0  0  0  0  0  0  0  0
    4.5668    0.8930    0.0094 H   0  0  0  0  0  0  0  0  0  0  0  0
    4.1757   -0.5661   -0.8835 H   0  0  0  0  0  0  0  0  0  0  0  0
   -1.9415   -0.6834   -2.1225 H   0  0  0  0  0  0  0  0  0  0  0  0
   -1.3058   -2.0013   -1.1255 H   0  0  0  0  0  0  0  0  0  0  0  0
   -3.0072   -1.9331   -1.4822 H   0  0  0  0  0  0  0  0  0  0  0  0
   -1.2937   -1.9184    1.2185 H   0  0  0  0  0  0  0  0  0  0  0  0
   -2.1240   -0.6666    2.1451 H   0  0  0  0  0  0  0  0  0  0  0  0
   -3.0249   -1.9952    1.4075 H   0  0  0  0  0  0  0  0  0  0  0  0
   -4.1611    0.5849   -0.9028 H   0  0  0  0  0  0  0  0  0  0  0  0
   -4.1673    0.5855    0.8845 H   0  0  0  0  0  0  0  0  0  0  0  0
   -4.5692   -0.8669   -0.0114 H   0  0  0  0  0  0  0  0  0  0  0  0
  1 13  1  0  0  0  0
  2 14  1  0  0  0  0
  3  4  1  0  0  0  0
  3 13  2  0  0  0  0
  4 14  2  0  0  0  0
  5  7  1  0  0  0  0
  5  8  1  0  0  0  0
  5  9  1  0  0  0  0
  5 13  1  0  0  0  0
  6 10  1  0  0  0  0
  6 11  1  0  0  0  0
  6 12  1  0  0  0  0
  6 14  1  0  0  0  0
  7 15  1  0  0  0  0
  7 16  1  0  0  0  0
  7 17  1  0  0  0  0
  8 18  1  0  0  0  0
  8 19  1  0  0  0  0
  8 20  1  0  0  0  0
  9 21  1  0  0  0  0
  9 22  1  0  0  0  0
  9 23  1  0  0  0  0
 10 24  1  0  0  0  0
 10 25  1  0  0  0  0
 10 26  1  0  0  0  0
 11 27  1  0  0  0  0
 11 28  1  0  0  0  0
 11 29  1  0  0  0  0
 12 30  1  0  0  0  0
 12 31  1  0  0  0  0
 12 32  1  0  0  0  0
M  END
> <PUBCHEM_COMPOUND_CID>
102072111

> <PUBCHEM_CONFORMER_RMSD>
0.6

> <PUBCHEM_CONFORMER_DIVERSEORDER>
1
2
3

> <PUBCHEM_MMFF94_PARTIAL_CHARGES>
8
1 -0.21
13 0.6
14 0.6
2 -0.21
3 -0.45
4 -0.45
5 0.06
6 0.06

> <PUBCHEM_EFFECTIVE_ROTOR_COUNT>
3

> <PUBCHEM_PHARMACOPHORE_FEATURES>
4
1 3 acceptor
1 4 acceptor
4 5 7 8 9 hydrophobe
4 6 10 11 12 hydrophobe

> <PUBCHEM_HEAVY_ATOM_COUNT>
14

> <PUBCHEM_ATOM_DEF_STEREO_COUNT>
0

> <PUBCHEM_ATOM_UDEF_STEREO_COUNT>
0

> <PUBCHEM_BOND_DEF_STEREO_COUNT>
2

> <PUBCHEM_BOND_UDEF_STEREO_COUNT>
0

> <PUBCHEM_ISOTOPIC_ATOM_COUNT>
0

> <PUBCHEM_COMPONENT_COUNT>
1

> <PUBCHEM_CACTVS_TAUTO_COUNT>
1

> <PUBCHEM_CONFORMER_ID>
06157F2F00000001

> <PUBCHEM_MMFF94_ENERGY>
60.1252

> <PUBCHEM_FEATURE_SELFOVERLAP>
21.782

> <PUBCHEM_SHAPE_FINGERPRINT>
10608611 8 18411976927703017328
107287 299 18339935903865091194
10922523 26 18338517417615988439
12500047 106 18339634530020197997
12932764 1 18131351924945983846
13380535 21 18266188244258909568
14144814 61 18410855417178488961
15442244 35 18049722923517179530
15775835 57 18131070458633223286
16945 1 18338799030026371079
17802600 8 18343577447489432176
18186145 218 16950555631785368389
19973954 147 18334582308444712564
20201158 50 18334295378901864075
20511035 2 18268429036039636942
20525323 117 18408316696528031541
20559304 39 18409730655733528180
20645477 70 18271805674882657126
21501502 16 18338797788786103841
21524375 3 17907295451842249637
21730867 7 18202844366129154970
23402539 116 18334002913541459039
23552423 10 18261957353537878479
23558518 356 18191311485744388057
23559900 14 18333730186991377346
2748010 2 18338798888292450549
3248919 1 18113615702883603947
7364860 26 18272368625305465998
8030462 33 18410856563940038285
81228 2 18334293150304792105
9709674 26 18408609136619916211

> <PUBCHEM_SHAPE_MULTIPOLES>
281.89
6.25
2.14
1.07
0.02
0.01
0
-0.02
-0.02
-0.02
0
0.01
0
0.01

> <PUBCHEM_SHAPE_SELFOVERLAP>
528.581

> <PUBCHEM_SHAPE_VOLUME>
175.7

> <PUBCHEM_COORDINATE_TYPE>
2
5
10

$$$$
