53678182
  -OEChem-02172602283D

 16 15  0     0  0  0  0  0  0999 V2000
   -2.9552   -0.3682   -0.6433 O   0  0  0  0  0  0  0  0  0  0  0  0
    2.6028   -1.0894   -0.0996 O   0  0  0  0  0  0  0  0  0  0  0  0
    2.0203    1.1104   -0.1838 O   0  0  0  0  0  0  0  0  0  0  0  0
   -0.7738    0.0875    0.2407 C   0  0  0  0  0  0  0  0  0  0  0  0
   -2.0823   -0.6392    0.4453 C   0  0  0  0  0  0  0  0  0  0  0  0
   -0.8987    1.5836    0.1368 C   0  0  0  0  0  0  0  0  0  0  0  0
    0.3670   -0.6220    0.1572 C   0  0  0  0  0  0  0  0  0  0  0  0
    1.7199   -0.0627   -0.0534 C   0  0  0  0  0  0  0  0  0  0  0  0
   -2.5588   -0.2998    1.3714 H   0  0  0  0  0  0  0  0  0  0  0  0
   -1.9492   -1.7242    0.5113 H   0  0  0  0  0  0  0  0  0  0  0  0
   -1.1923    1.8702   -0.8778 H   0  0  0  0  0  0  0  0  0  0  0  0
    0.0143    2.1182    0.4023 H   0  0  0  0  0  0  0  0  0  0  0  0
   -1.6672    1.9473    0.8286 H   0  0  0  0  0  0  0  0  0  0  0  0
    0.3209   -1.7057    0.2454 H   0  0  0  0  0  0  0  0  0  0  0  0
   -3.7899   -0.8332   -0.4625 H   0  0  0  0  0  0  0  0  0  0  0  0
    3.5213   -0.7772   -0.2453 H   0  0  0  0  0  0  0  0  0  0  0  0
  1  5  1  0  0  0  0
  1 15  1  0  0  0  0
  2  8  1  0  0  0  0
  2 16  1  0  0  0  0
  3  8  2  0  0  0  0
  4  5  1  0  0  0  0
  4  6  1  0  0  0  0
  4  7  2  3  0  0  0
  5  9  1  0  0  0  0
  5 10  1  0  0  0  0
  6 11  1  0  0  0  0
  6 12  1  0  0  0  0
  6 13  1  0  0  0  0
  7  8  1  0  0  0  0
  7 14  1  0  0  0  0
M  END
> <PUBCHEM_COMPOUND_CID>
53678182

> <PUBCHEM_CONFORMER_RMSD>
0.4

> <PUBCHEM_CONFORMER_DIVERSEORDER>
1
6
4
2
5
3

> <PUBCHEM_MMFF94_PARTIAL_CHARGES>
11
1 -0.68
14 0.15
15 0.4
16 0.5
2 -0.65
3 -0.57
4 -0.28
5 0.42
6 0.14
7 -0.14
8 0.71

> <PUBCHEM_EFFECTIVE_ROTOR_COUNT>
2

> <PUBCHEM_PHARMACOPHORE_FEATURES>
6
1 1 acceptor
1 1 donor
1 2 acceptor
1 3 acceptor
1 6 hydrophobe
3 2 3 8 anion

> <PUBCHEM_HEAVY_ATOM_COUNT>
8

> <PUBCHEM_ATOM_DEF_STEREO_COUNT>
0

> <PUBCHEM_ATOM_UDEF_STEREO_COUNT>
0

> <PUBCHEM_BOND_DEF_STEREO_COUNT>
0

> <PUBCHEM_BOND_UDEF_STEREO_COUNT>
1

> <PUBCHEM_ISOTOPIC_ATOM_COUNT>
0

> <PUBCHEM_COMPONENT_COUNT>
1

> <PUBCHEM_CACTVS_TAUTO_COUNT>
1

> <PUBCHEM_CONFORMER_ID>
0333106600000001

> <PUBCHEM_MMFF94_ENERGY>
12.3066

> <PUBCHEM_FEATURE_SELFOVERLAP>
30.502

> <PUBCHEM_SHAPE_FINGERPRINT>
12897270 3 18409169921708879615
12932741 1 17530975708185676618
14390081 3 17458617939157607909
16714656 1 18343866627853613167
20653085 51 16298390119644117509
23552423 10 18261680285266094410
29004967 10 18336834202926890203
5084963 1 18201440242314253370
5460574 1 8862948268394582443

> <PUBCHEM_SHAPE_MULTIPOLES>
147.03
3.77
1.3
0.67
0.09
0.47
-0.01
-0.88
0.53
-0.11
-0.03
0.21
-0.03
-0.05

> <PUBCHEM_SHAPE_SELFOVERLAP>
276.11

> <PUBCHEM_SHAPE_VOLUME>
91.6

> <PUBCHEM_COORDINATE_TYPE>
2
5
10

$$$$
