102146939
  -OEChem-02172602443D

 42 44  0     1  0  0  0  0  0999 V2000
   -0.2165    0.4393   -0.2529 O   0  0  0  0  0  0  0  0  0  0  0  0
   -1.8660    0.6757    1.4386 O   0  0  0  0  0  0  0  0  0  0  0  0
   -2.6126    2.8045    0.6859 O   0  0  0  0  0  0  0  0  0  0  0  0
   -3.1964   -1.5680    0.2966 O   0  0  0  0  0  0  0  0  0  0  0  0
   -0.9671   -2.2027    0.2813 N   0  0  0  0  0  0  0  0  0  0  0  0
   -1.5689    0.2074    0.1050 C   0  0  1  0  0  0  0  0  0  0  0  0
   -2.4877    0.9685   -0.8882 C   0  0  1  0  0  0  0  0  0  0  0  0
    0.4241   -1.8496   -0.0406 C   0  0  2  0  0  0  0  0  0  0  0  0
    0.6953   -0.4160    0.4337 C   0  0  1  0  0  0  0  0  0  0  0  0
   -2.0023   -1.2699    0.2072 C   0  0  0  0  0  0  0  0  0  0  0  0
   -2.3444    2.4813   -0.6771 C   0  0  0  0  0  0  0  0  0  0  0  0
   -2.2149    0.6099   -2.3481 C   0  0  0  0  0  0  0  0  0  0  0  0
    2.1282    0.0343    0.2284 C   0  0  0  0  0  0  0  0  0  0  0  0
    0.6800   -2.0531   -1.5402 C   0  0  0  0  0  0  0  0  0  0  0  0
   -1.7379    2.0914    1.5544 C   0  0  0  0  0  0  0  0  0  0  0  0
   -1.2642   -3.6116    0.5082 C   0  0  0  0  0  0  0  0  0  0  0  0
    3.0758   -0.1756    1.2303 C   0  0  0  0  0  0  0  0  0  0  0  0
    2.4990    0.6586   -0.9624 C   0  0  0  0  0  0  0  0  0  0  0  0
    4.3943    0.2390    1.0412 C   0  0  0  0  0  0  0  0  0  0  0  0
    3.8173    1.0731   -1.1516 C   0  0  0  0  0  0  0  0  0  0  0  0
    4.7649    0.8634   -0.1498 C   0  0  0  0  0  0  0  0  0  0  0  0
   -3.5328    0.7202   -0.6576 H   0  0  0  0  0  0  0  0  0  0  0  0
    1.0753   -2.5342    0.5179 H   0  0  0  0  0  0  0  0  0  0  0  0
    0.4850   -0.3345    1.5097 H   0  0  0  0  0  0  0  0  0  0  0  0
   -1.3440    2.8416   -0.9458 H   0  0  0  0  0  0  0  0  0  0  0  0
   -3.0673    3.0245   -1.2949 H   0  0  0  0  0  0  0  0  0  0  0  0
   -1.2008    0.8900   -2.6515 H   0  0  0  0  0  0  0  0  0  0  0  0
   -2.9152    1.1321   -3.0089 H   0  0  0  0  0  0  0  0  0  0  0  0
   -2.3382   -0.4642   -2.5186 H   0  0  0  0  0  0  0  0  0  0  0  0
    0.0867   -1.3695   -2.1547 H   0  0  0  0  0  0  0  0  0  0  0  0
    0.4144   -3.0708   -1.8456 H   0  0  0  0  0  0  0  0  0  0  0  0
    1.7361   -1.9158   -1.7895 H   0  0  0  0  0  0  0  0  0  0  0  0
   -0.6985    2.4019    1.3924 H   0  0  0  0  0  0  0  0  0  0  0  0
   -2.0020    2.3608    2.5811 H   0  0  0  0  0  0  0  0  0  0  0  0
   -0.5999   -3.9945    1.2880 H   0  0  0  0  0  0  0  0  0  0  0  0
   -1.1027   -4.1658   -0.4200 H   0  0  0  0  0  0  0  0  0  0  0  0
   -2.3002   -3.7533    0.8267 H   0  0  0  0  0  0  0  0  0  0  0  0
    2.7999   -0.6631    2.1615 H   0  0  0  0  0  0  0  0  0  0  0  0
    1.7803    0.8299   -1.7592 H   0  0  0  0  0  0  0  0  0  0  0  0
    5.1323    0.0751    1.8209 H   0  0  0  0  0  0  0  0  0  0  0  0
    4.1064    1.5584   -2.0793 H   0  0  0  0  0  0  0  0  0  0  0  0
    5.7914    1.1859   -0.2972 H   0  0  0  0  0  0  0  0  0  0  0  0
  1  6  1  0  0  0  0
  1  9  1  0  0  0  0
  2  6  1  0  0  0  0
  2 15  1  0  0  0  0
  3 11  1  0  0  0  0
  3 15  1  0  0  0  0
  4 10  2  0  0  0  0
  5  8  1  0  0  0  0
  5 10  1  0  0  0  0
  5 16  1  0  0  0  0
  6  7  1  0  0  0  0
  6 10  1  0  0  0  0
  7 11  1  0  0  0  0
  7 12  1  0  0  0  0
  7 22  1  0  0  0  0
  8  9  1  0  0  0  0
  8 14  1  0  0  0  0
  8 23  1  0  0  0  0
  9 13  1  0  0  0  0
  9 24  1  0  0  0  0
 11 25  1  0  0  0  0
 11 26  1  0  0  0  0
 12 27  1  0  0  0  0
 12 28  1  0  0  0  0
 12 29  1  0  0  0  0
 13 17  2  0  0  0  0
 13 18  1  0  0  0  0
 14 30  1  0  0  0  0
 14 31  1  0  0  0  0
 14 32  1  0  0  0  0
 15 33  1  0  0  0  0
 15 34  1  0  0  0  0
 16 35  1  0  0  0  0
 16 36  1  0  0  0  0
 16 37  1  0  0  0  0
 17 19  1  0  0  0  0
 17 38  1  0  0  0  0
 18 20  2  0  0  0  0
 18 39  1  0  0  0  0
 19 21  2  0  0  0  0
 19 40  1  0  0  0  0
 20 21  1  0  0  0  0
 20 41  1  0  0  0  0
 21 42  1  0  0  0  0
M  END
> <PUBCHEM_COMPOUND_CID>
102146939

> <PUBCHEM_CONFORMER_RMSD>
0.6

> <PUBCHEM_CONFORMER_DIVERSEORDER>
1
4
3
2

> <PUBCHEM_MMFF94_PARTIAL_CHARGES>
23
1 -0.56
10 0.57
11 0.28
13 -0.14
15 0.56
16 0.3
17 -0.15
18 -0.15
19 -0.15
2 -0.56
20 -0.15
21 -0.15
3 -0.56
38 0.15
39 0.15
4 -0.57
40 0.15
41 0.15
42 0.15
5 -0.66
6 0.62
8 0.3
9 0.42

> <PUBCHEM_EFFECTIVE_ROTOR_COUNT>
2.8

> <PUBCHEM_PHARMACOPHORE_FEATURES>
7
1 1 acceptor
1 2 acceptor
1 3 acceptor
1 4 acceptor
6 1 5 6 8 9 10 rings
6 13 17 18 19 20 21 rings
6 2 3 6 7 11 15 rings

> <PUBCHEM_HEAVY_ATOM_COUNT>
21

> <PUBCHEM_ATOM_DEF_STEREO_COUNT>
4

> <PUBCHEM_ATOM_UDEF_STEREO_COUNT>
0

> <PUBCHEM_BOND_DEF_STEREO_COUNT>
0

> <PUBCHEM_BOND_UDEF_STEREO_COUNT>
0

> <PUBCHEM_ISOTOPIC_ATOM_COUNT>
0

> <PUBCHEM_COMPONENT_COUNT>
1

> <PUBCHEM_CACTVS_TAUTO_COUNT>
1

> <PUBCHEM_CONFORMER_ID>
0616A37B00000001

> <PUBCHEM_MMFF94_ENERGY>
59.0133

> <PUBCHEM_FEATURE_SELFOVERLAP>
35.6

> <PUBCHEM_SHAPE_FINGERPRINT>
10162869 55 18197239130126877531
10165383 225 17615734697412742949
11582403 64 15722171187116443637
11640471 11 17841418246564671273
121448 382 18271508845439573630
12173636 292 18411984620015727213
12403814 3 17967814989700557707
12788726 201 18190732218767760642
13140716 1 18051137191686417987
13583140 156 16805324362235461432
14142880 1 18335138674619821461
14614273 12 18408889542191585039
14787075 74 18271519811335430481
15309172 13 18260832553343091232
15342168 16 18191594059943251861
15534591 1 17773885203152225065
15852999 172 18339909425302053838
16752209 62 18336811091539467970
16945 1 18336542840851444683
18186145 218 17775295937027049744
18981168 100 18195545708758732197
19765921 60 18056468466071744153
20112054 60 18342454859266099240
20510252 161 18412546539092406859
20600515 1 17973744750420319311
21524375 3 18269545053332239286
22907989 373 18339642372835930052
22956985 138 15811420126728850578
2306618 200 18260260880231905597
23402539 116 18340481287550211991
23419403 2 17553745653858151971
23557571 272 18270126832570142030
23559900 14 18201444645700035174
2748010 2 18194136135089631303
350125 39 18266474113061393939
4340502 62 18266745680286992017
474 4 18121775028518630141
5845 1 17978826663040892267
6992083 37 17967531281367331116
7097593 13 17968645031044023082
81228 2 18266753547907403707
84936 182 17767956545944647112
9981440 41 17988060241532052418

> <PUBCHEM_SHAPE_MULTIPOLES>
403.71
6.75
3.06
1.56
8.26
1.5
0.44
-3.08
-0.15
-3.15
-0.36
-0.35
-0.45
-0.16

> <PUBCHEM_SHAPE_SELFOVERLAP>
857.049

> <PUBCHEM_SHAPE_VOLUME>
221.8

> <PUBCHEM_COORDINATE_TYPE>
2
5
10

$$$$
