10177048
  -OEChem-02172602363D

 46 47  0     1  0  0  0  0  0999 V2000
   -1.1240    1.3472    0.2692 O   0  0  0  0  0  0  0  0  0  0  0  0
   -4.5580   -0.9812   -1.7849 O   0  0  0  0  0  0  0  0  0  0  0  0
   -3.4711    2.9075   -0.2046 O   0  0  0  0  0  0  0  0  0  0  0  0
   -1.8489   -1.0875   -0.8473 O   0  0  0  0  0  0  0  0  0  0  0  0
   -6.6188   -0.7815    1.0866 O   0  0  0  0  0  0  0  0  0  0  0  0
   -6.9057   -1.7586   -0.9527 O   0  0  0  0  0  0  0  0  0  0  0  0
   -0.2946    0.5285    2.2640 O   0  0  0  0  0  0  0  0  0  0  0  0
    6.7502   -1.3334    0.7614 O   0  0  0  0  0  0  0  0  0  0  0  0
    7.2714    0.1855   -1.5058 O   0  0  0  0  0  0  0  0  0  0  0  0
   -4.8480   -0.5896   -0.4485 C   0  0  0  0  0  0  0  0  0  0  0  0
   -2.4377    0.8449    0.5085 C   0  0  0  0  0  0  0  0  0  0  0  0
   -4.8178    0.9353   -0.3264 C   0  0  0  0  0  0  0  0  0  0  0  0
   -3.8510   -1.2596    0.5083 C   0  0  0  0  0  0  0  0  0  0  0  0
   -3.4061    1.5071   -0.4744 C   0  0  1  0  0  0  0  0  0  0  0  0
   -2.4354   -0.6828    0.3902 C   0  0  1  0  0  0  0  0  0  0  0  0
   -6.2252   -1.1169   -0.1664 C   0  0  0  0  0  0  0  0  0  0  0  0
   -0.1536    0.8791    1.1033 C   0  0  0  0  0  0  0  0  0  0  0  0
    1.1220    0.8692    0.3518 C   0  0  0  0  0  0  0  0  0  0  0  0
    2.2394    0.4357    0.9525 C   0  0  0  0  0  0  0  0  0  0  0  0
    3.5632    0.3681    0.3089 C   0  0  0  0  0  0  0  0  0  0  0  0
    4.5368   -0.4585    0.8456 C   0  0  0  0  0  0  0  0  0  0  0  0
    3.8078    1.1318   -0.8207 C   0  0  0  0  0  0  0  0  0  0  0  0
    5.7896   -0.5231    0.2359 C   0  0  0  0  0  0  0  0  0  0  0  0
    5.0607    1.0673   -1.4304 C   0  0  0  0  0  0  0  0  0  0  0  0
    6.0516    0.2398   -0.9021 C   0  0  0  0  0  0  0  0  0  0  0  0
    6.8030   -2.6742    0.2779 C   0  0  0  0  0  0  0  0  0  0  0  0
   -2.7310    1.1402    1.5257 H   0  0  0  0  0  0  0  0  0  0  0  0
   -5.4643    1.3929   -1.0874 H   0  0  0  0  0  0  0  0  0  0  0  0
   -5.2305    1.2626    0.6375 H   0  0  0  0  0  0  0  0  0  0  0  0
   -4.1799   -1.1455    1.5488 H   0  0  0  0  0  0  0  0  0  0  0  0
   -3.8121   -2.3355    0.2927 H   0  0  0  0  0  0  0  0  0  0  0  0
   -3.0425    1.3987   -1.5027 H   0  0  0  0  0  0  0  0  0  0  0  0
   -1.8197   -1.1386    1.1715 H   0  0  0  0  0  0  0  0  0  0  0  0
   -5.1408   -0.4821   -2.3823 H   0  0  0  0  0  0  0  0  0  0  0  0
   -4.0787    3.3033   -0.8526 H   0  0  0  0  0  0  0  0  0  0  0  0
   -2.4135   -0.7730   -1.5726 H   0  0  0  0  0  0  0  0  0  0  0  0
   -7.5181   -1.1163    1.2902 H   0  0  0  0  0  0  0  0  0  0  0  0
    1.0865    1.1982   -0.6802 H   0  0  0  0  0  0  0  0  0  0  0  0
    2.2058    0.0914    1.9838 H   0  0  0  0  0  0  0  0  0  0  0  0
    4.3406   -1.0569    1.7320 H   0  0  0  0  0  0  0  0  0  0  0  0
    3.0748    1.8052   -1.2534 H   0  0  0  0  0  0  0  0  0  0  0  0
    5.2536    1.6704   -2.3137 H   0  0  0  0  0  0  0  0  0  0  0  0
    7.2696    0.7776   -2.2774 H   0  0  0  0  0  0  0  0  0  0  0  0
    6.9943   -2.6885   -0.7997 H   0  0  0  0  0  0  0  0  0  0  0  0
    5.8685   -3.1990    0.5008 H   0  0  0  0  0  0  0  0  0  0  0  0
    7.6231   -3.1894    0.7855 H   0  0  0  0  0  0  0  0  0  0  0  0
  1 11  1  0  0  0  0
  1 17  1  0  0  0  0
  2 10  1  0  0  0  0
  2 34  1  0  0  0  0
  3 14  1  0  0  0  0
  3 35  1  0  0  0  0
  4 15  1  0  0  0  0
  4 36  1  0  0  0  0
  5 16  1  0  0  0  0
  5 37  1  0  0  0  0
  6 16  2  0  0  0  0
  7 17  2  0  0  0  0
  8 23  1  0  0  0  0
  8 26  1  0  0  0  0
  9 25  1  0  0  0  0
  9 43  1  0  0  0  0
 10 12  1  0  0  0  0
 10 13  1  0  0  0  0
 10 16  1  0  0  0  0
 11 14  1  0  0  0  0
 11 15  1  0  0  0  0
 11 27  1  0  0  0  0
 12 14  1  0  0  0  0
 12 28  1  0  0  0  0
 12 29  1  0  0  0  0
 13 15  1  0  0  0  0
 13 30  1  0  0  0  0
 13 31  1  0  0  0  0
 14 32  1  0  0  0  0
 15 33  1  0  0  0  0
 17 18  1  0  0  0  0
 18 19  2  0  0  0  0
 18 38  1  0  0  0  0
 19 20  1  0  0  0  0
 19 39  1  0  0  0  0
 20 21  2  0  0  0  0
 20 22  1  0  0  0  0
 21 23  1  0  0  0  0
 21 40  1  0  0  0  0
 22 24  2  0  0  0  0
 22 41  1  0  0  0  0
 23 25  2  0  0  0  0
 24 25  1  0  0  0  0
 24 42  1  0  0  0  0
 26 44  1  0  0  0  0
 26 45  1  0  0  0  0
 26 46  1  0  0  0  0
M  END
> <PUBCHEM_COMPOUND_CID>
10177048

> <PUBCHEM_CONFORMER_RMSD>
0.8

> <PUBCHEM_CONFORMER_DIVERSEORDER>
1
92
158
113
59
24
163
181
189
38
26
171
197
53
126
80
147
35
60
127
144
122
58
191
194
23
29
15
201
89
116
124
192
199
91
178
65
138
47
203
164
66
87
135
155
43
104
123
202
32
36
67
14
118
173
152
176
110
12
146
177
190
159
56
74
180
86
22
121
153
136
63
83
3
137
184
193
27
168
96
17
98
105
114
52
73
174
69
154
51
196
101
133
33
72
81
82
182
19
85
170
198
68
94
108
7
79
10
55
20
166
16
34
103
161
128
205
71
134
93
156
140
179
70
39
2
78
165
62
141
102
99
186
75
13
41
151
132
143
149
54
50
31
148
150
25
183
107
6
129
187
97
84
64
185
90
8
57
160
21
117
125
169
115
30
44
142
88
48
61
188
37
18
204
145
119
109
5
46
11
49
76
139
172
28
100
112
4
206
175
200
157
195
95
77
120
106
162
42
111
9
131
45
130
40
167

> <PUBCHEM_MMFF94_PARTIAL_CHARGES>
34
1 -0.43
10 0.34
11 0.28
14 0.28
15 0.28
16 0.66
17 0.71
18 -0.14
19 -0.18
2 -0.68
20 0.03
21 -0.15
22 -0.15
23 0.08
24 -0.15
25 0.08
26 0.28
3 -0.68
34 0.4
35 0.4
36 0.4
37 0.5
38 0.15
39 0.15
4 -0.68
40 0.15
41 0.15
42 0.15
43 0.45
5 -0.65
6 -0.57
7 -0.57
8 -0.36
9 -0.53

> <PUBCHEM_EFFECTIVE_ROTOR_COUNT>
7.2

> <PUBCHEM_PHARMACOPHORE_FEATURES>
14
1 2 acceptor
1 2 donor
1 3 acceptor
1 3 donor
1 4 acceptor
1 4 donor
1 5 acceptor
1 6 acceptor
1 7 acceptor
1 8 acceptor
1 9 donor
3 5 6 16 anion
6 10 11 12 13 14 15 rings
6 20 21 22 23 24 25 rings

> <PUBCHEM_HEAVY_ATOM_COUNT>
26

> <PUBCHEM_ATOM_DEF_STEREO_COUNT>
2

> <PUBCHEM_ATOM_UDEF_STEREO_COUNT>
0

> <PUBCHEM_BOND_DEF_STEREO_COUNT>
1

> <PUBCHEM_BOND_UDEF_STEREO_COUNT>
0

> <PUBCHEM_ISOTOPIC_ATOM_COUNT>
0

> <PUBCHEM_COMPONENT_COUNT>
1

> <PUBCHEM_CACTVS_TAUTO_COUNT>
3

> <PUBCHEM_CONFORMER_ID>
009B4A1800000001

> <PUBCHEM_MMFF94_ENERGY>
81.1304

> <PUBCHEM_FEATURE_SELFOVERLAP>
71.123

> <PUBCHEM_SHAPE_FINGERPRINT>
10 15 11455890286449474499
10299344 5 18409452483380855523
10595046 47 18259705580032236064
11524674 6 16558750135480177887
12166972 35 18411420626749639624
12236239 1 18040716956775920004
12516196 113 16128657465797359944
12616971 3 14979949298206736120
13288520 33 18413387657810408609
13533116 47 18411135832258620346
13668630 136 17704077308562081750
13673619 4 18059855103993936913
13685833 64 17418094342598615104
13782708 43 18131625707678478407
14251752 14 18411697660318209341
14251757 52 7997962475946787478
14347332 77 18341611507935580865
14849402 71 12175320532404692386
15003188 100 16443350918230124524
15119646 104 18411986827950865858
15183329 4 17530682083326695466
15348495 7 14764056917475304151
1577012 14 18186806846730059988
17844677 252 18130787871429366712
19958102 18 18113896048616738318
20281389 69 10953730123636506374
21150785 3 17385444349301972168
21267235 1 18336266842907121675
21521239 73 18040151816874364386
21623969 137 16200156499565484892
22061861 79 17749107786203848158
221357 26 17095519600400118724
22956985 138 17627525839484412582
2297311 6 18412546526861911793
23035841 295 18202566193977000723
23081809 10 18187368693008651208
23198884 109 17676206866383263305
23516275 100 15069471616939952446
23522609 53 18055383389893230769
23559900 14 18263077884862546313
29717793 49 18186803552837764274
3004659 81 18202005456185080844
312425 54 13038897833519874260
3178227 256 12967134875188050444
439807 62 18411699876653410811
497634 4 17749105587138447037
5104073 3 14476411357599121978
5283156 175 18335421248828130289
559249 180 18339637841460660041
59682541 52 16877938305405363626
59755656 520 16298677100663913817
86090 222 16701477726996774926

> <PUBCHEM_SHAPE_MULTIPOLES>
482.24
21.16
1.97
1.35
10.19
0.12
-0.03
10
5.6
-0.15
0.14
0.25
-0.04
-1.41

> <PUBCHEM_SHAPE_SELFOVERLAP>
1020.209

> <PUBCHEM_SHAPE_VOLUME>
267.3

> <PUBCHEM_COORDINATE_TYPE>
2
5
10

$$$$
