71720840
  -OEChem-02172602273D

 46 47  0     1  0  0  0  0  0999 V2000
   -0.4195    0.2483    0.3261 O   0  0  0  0  0  0  0  0  0  0  0  0
   -4.7034    1.9326   -0.1708 O   0  0  0  0  0  0  0  0  0  0  0  0
   -2.1178    1.6313   -1.3776 O   0  0  0  0  0  0  0  0  0  0  0  0
   -2.0826   -0.0967    2.6246 O   0  0  0  0  0  0  0  0  0  0  0  0
   -6.1249   -1.3047   -0.0556 O   0  0  0  0  0  0  0  0  0  0  0  0
   -7.0291    0.8024   -0.3368 O   0  0  0  0  0  0  0  0  0  0  0  0
    0.2754   -1.7520   -0.5977 O   0  0  0  0  0  0  0  0  0  0  0  0
    7.7123   -1.6030   -0.0817 O   0  0  0  0  0  0  0  0  0  0  0  0
    8.2148    1.1161    0.2045 O   0  0  0  0  0  0  0  0  0  0  0  0
   -4.6521    0.5154   -0.0603 C   0  0  0  0  0  0  0  0  0  0  0  0
   -1.7819   -0.1639    0.2296 C   0  0  0  0  0  0  0  0  0  0  0  0
   -3.8481   -0.0602   -1.2353 C   0  0  0  0  0  0  0  0  0  0  0  0
   -4.0558    0.1120    1.2898 C   0  0  0  0  0  0  0  0  0  0  0  0
   -2.3487    0.2432   -1.1344 C   0  0  1  0  0  0  0  0  0  0  0  0
   -2.5658    0.4446    1.3949 C   0  0  1  0  0  0  0  0  0  0  0  0
   -6.0763    0.0530   -0.1700 C   0  0  0  0  0  0  0  0  0  0  0  0
    0.5008   -0.6487   -0.1262 C   0  0  0  0  0  0  0  0  0  0  0  0
   -7.4312   -1.8827   -0.1431 C   0  0  0  0  0  0  0  0  0  0  0  0
    1.8426   -0.0494    0.0535 C   0  0  0  0  0  0  0  0  0  0  0  0
    2.9299   -0.7398   -0.3186 C   0  0  0  0  0  0  0  0  0  0  0  0
    4.3153   -0.2565   -0.1820 C   0  0  0  0  0  0  0  0  0  0  0  0
    5.3746   -1.1639   -0.1959 C   0  0  0  0  0  0  0  0  0  0  0  0
    4.5676    1.1078   -0.0386 C   0  0  0  0  0  0  0  0  0  0  0  0
    6.6862   -0.7072   -0.0664 C   0  0  0  0  0  0  0  0  0  0  0  0
    5.8792    1.5647    0.0911 C   0  0  0  0  0  0  0  0  0  0  0  0
    6.9385    0.6572    0.0770 C   0  0  0  0  0  0  0  0  0  0  0  0
   -1.8469   -1.2561    0.3370 H   0  0  0  0  0  0  0  0  0  0  0  0
   -4.2331    0.3468   -2.1795 H   0  0  0  0  0  0  0  0  0  0  0  0
   -3.9675   -1.1500   -1.2834 H   0  0  0  0  0  0  0  0  0  0  0  0
   -4.1923   -0.9607    1.4814 H   0  0  0  0  0  0  0  0  0  0  0  0
   -4.5872    0.6230    2.1041 H   0  0  0  0  0  0  0  0  0  0  0  0
   -1.8132   -0.2942   -1.9255 H   0  0  0  0  0  0  0  0  0  0  0  0
   -2.4062    1.5286    1.4348 H   0  0  0  0  0  0  0  0  0  0  0  0
   -4.9930    2.1611   -1.0706 H   0  0  0  0  0  0  0  0  0  0  0  0
   -2.4764    1.8391   -2.2572 H   0  0  0  0  0  0  0  0  0  0  0  0
   -2.5847    0.3201    3.3457 H   0  0  0  0  0  0  0  0  0  0  0  0
   -7.3311   -2.9662   -0.0372 H   0  0  0  0  0  0  0  0  0  0  0  0
   -7.8771   -1.6647   -1.1182 H   0  0  0  0  0  0  0  0  0  0  0  0
   -8.0659   -1.5078    0.6655 H   0  0  0  0  0  0  0  0  0  0  0  0
    1.8866    0.9343    0.5061 H   0  0  0  0  0  0  0  0  0  0  0  0
    2.8263   -1.7352   -0.7445 H   0  0  0  0  0  0  0  0  0  0  0  0
    5.1819   -2.2290   -0.3062 H   0  0  0  0  0  0  0  0  0  0  0  0
    3.7767    1.8520   -0.0425 H   0  0  0  0  0  0  0  0  0  0  0  0
    6.0624    2.6306    0.1978 H   0  0  0  0  0  0  0  0  0  0  0  0
    7.3498   -2.4991   -0.1890 H   0  0  0  0  0  0  0  0  0  0  0  0
    8.1959    2.0844    0.2935 H   0  0  0  0  0  0  0  0  0  0  0  0
  1 11  1  0  0  0  0
  1 17  1  0  0  0  0
  2 10  1  0  0  0  0
  2 34  1  0  0  0  0
  3 14  1  0  0  0  0
  3 35  1  0  0  0  0
  4 15  1  0  0  0  0
  4 36  1  0  0  0  0
  5 16  1  0  0  0  0
  5 18  1  0  0  0  0
  6 16  2  0  0  0  0
  7 17  2  0  0  0  0
  8 24  1  0  0  0  0
  8 45  1  0  0  0  0
  9 26  1  0  0  0  0
  9 46  1  0  0  0  0
 10 12  1  0  0  0  0
 10 13  1  0  0  0  0
 10 16  1  0  0  0  0
 11 14  1  0  0  0  0
 11 15  1  0  0  0  0
 11 27  1  0  0  0  0
 12 14  1  0  0  0  0
 12 28  1  0  0  0  0
 12 29  1  0  0  0  0
 13 15  1  0  0  0  0
 13 30  1  0  0  0  0
 13 31  1  0  0  0  0
 14 32  1  0  0  0  0
 15 33  1  0  0  0  0
 17 19  1  0  0  0  0
 18 37  1  0  0  0  0
 18 38  1  0  0  0  0
 18 39  1  0  0  0  0
 19 20  2  0  0  0  0
 19 40  1  0  0  0  0
 20 21  1  0  0  0  0
 20 41  1  0  0  0  0
 21 22  2  0  0  0  0
 21 23  1  0  0  0  0
 22 24  1  0  0  0  0
 22 42  1  0  0  0  0
 23 25  2  0  0  0  0
 23 43  1  0  0  0  0
 24 26  2  0  0  0  0
 25 26  1  0  0  0  0
 25 44  1  0  0  0  0
M  END
> <PUBCHEM_COMPOUND_CID>
71720840

> <PUBCHEM_CONFORMER_RMSD>
1

> <PUBCHEM_CONFORMER_DIVERSEORDER>
1
67
18
36
39
29
13
88
54
51
104
44
90
94
100
24
97
31
79
15
30
72
4
83
77
28
26
68
45
78
80
59
38
32
50
60
82
21
105
65
37
9
70
25
74
91
27
14
76
7
103
85
11
20
40
101
47
58
52
66
98
93
42
106
49
3
71
16
12
22
41
84
23
92
81
48
107
86
33
64
99
17
46
53
34
63
96
69
57
43
102
55
73
19
5
62
108
35
8
89
61
2
75
6
87
56
95
10

> <PUBCHEM_MMFF94_PARTIAL_CHARGES>
34
1 -0.43
10 0.34
11 0.28
14 0.28
15 0.28
16 0.66
17 0.71
18 0.28
19 -0.14
2 -0.68
20 -0.18
21 0.03
22 -0.15
23 -0.15
24 0.08
25 -0.15
26 0.08
3 -0.68
34 0.4
35 0.4
36 0.4
4 -0.68
40 0.15
41 0.15
42 0.15
43 0.15
44 0.15
45 0.45
46 0.45
5 -0.43
6 -0.57
7 -0.57
8 -0.53
9 -0.53

> <PUBCHEM_EFFECTIVE_ROTOR_COUNT>
7.2

> <PUBCHEM_PHARMACOPHORE_FEATURES>
12
1 2 acceptor
1 2 donor
1 3 acceptor
1 3 donor
1 4 acceptor
1 4 donor
1 6 acceptor
1 7 acceptor
1 8 donor
1 9 donor
6 10 11 12 13 14 15 rings
6 21 22 23 24 25 26 rings

> <PUBCHEM_HEAVY_ATOM_COUNT>
26

> <PUBCHEM_ATOM_DEF_STEREO_COUNT>
2

> <PUBCHEM_ATOM_UDEF_STEREO_COUNT>
0

> <PUBCHEM_BOND_DEF_STEREO_COUNT>
1

> <PUBCHEM_BOND_UDEF_STEREO_COUNT>
0

> <PUBCHEM_ISOTOPIC_ATOM_COUNT>
0

> <PUBCHEM_COMPONENT_COUNT>
1

> <PUBCHEM_CACTVS_TAUTO_COUNT>
16

> <PUBCHEM_CONFORMER_ID>
04465F8800000001

> <PUBCHEM_MMFF94_ENERGY>
65.714

> <PUBCHEM_FEATURE_SELFOVERLAP>
60.921

> <PUBCHEM_SHAPE_FINGERPRINT>
10 15 17822007645367905964
10299344 5 17917710218615366382
10968037 39 16630525137802177693
11315181 36 18202567281057251601
11524674 6 16732704960473318226
12166972 35 18342738541903947360
12236239 1 17775006764809431816
12516196 113 18113336405967288468
13073987 5 15482120362411306294
13533116 47 17346036676538455366
13631057 29 18130502046283833151
13668630 136 18271810094936676470
13947920 75 17168140178719518923
14118638 360 15769505231427611270
14123256 10 17060340729868733384
14251764 18 18273212015274697086
14251764 46 18202282502417292311
14856354 85 16415476082436867277
14933364 13 18411698781642225436
15183329 4 16056881329899190428
15348495 7 17313394482506562344
15419008 47 17676202472817161676
15461852 350 18261118503628440286
15716309 27 18343300370622562263
1577012 14 17489319546732328048
17093844 174 10519981561392400895
18335252 98 18130793382157107359
19489759 90 17022623069877880149
20157964 124 18344148082078238982
20281389 69 18411979161703059716
21033648 29 18261943107849159160
21150785 3 18411418435951743802
21267235 1 15841548600691980515
21315763 28 18411136918457779228
220451 1 14261632811541434212
22224240 67 17603583045627539314
23035841 295 16415478259594889135
23198884 109 18334576828530640841
23402539 116 17095243627297528319
23559900 14 16371016251134958021
23569917 315 17989215824111541230
23622692 88 15357699699204696566
335352 9 16056874716451706737
3383291 50 16950293935649976179
34797466 226 14045742651793787672
4073 2 18114466755777098762
4325135 7 18271806843440367359
5283156 175 17060622166322750222
559249 180 13695874752962912689
59755656 215 16877661232522153034
59755656 520 18411975879910696375
6691757 9 16153718617577021265

> <PUBCHEM_SHAPE_MULTIPOLES>
482.24
23.77
1.54
1.16
17.27
0.11
-0.51
1.61
0.74
0.1
0.2
-1.49
-0.17
0.27

> <PUBCHEM_SHAPE_SELFOVERLAP>
1018.072

> <PUBCHEM_SHAPE_VOLUME>
268.2

> <PUBCHEM_COORDINATE_TYPE>
2
5
10

$$$$
