40486293
  -OEChem-03052615073D

 52 55  0     1  0  0  0  0  0999 V2000
   -2.1281   -0.4575   -0.2829 O   0  0  0  0  0  0  0  0  0  0  0  0
   -0.4601   -0.9476    1.2939 O   0  0  0  0  0  0  0  0  0  0  0  0
   -3.8552   -4.1880    0.2068 O   0  0  0  0  0  0  0  0  0  0  0  0
   -4.4641   -2.6063   -2.1331 O   0  0  0  0  0  0  0  0  0  0  0  0
   -2.9078   -2.1421    1.8490 O   0  0  0  0  0  0  0  0  0  0  0  0
    2.0225    1.4175   -0.0595 O   0  0  0  0  0  0  0  0  0  0  0  0
    1.8285   -2.5050    1.0268 O   0  0  0  0  0  0  0  0  0  0  0  0
    4.3365   -2.8200    0.3589 O   0  0  0  0  0  0  0  0  0  0  0  0
    6.5784    1.0106   -1.3283 O   0  0  0  0  0  0  0  0  0  0  0  0
   -2.1804    4.0038   -1.6933 O   0  0  0  0  0  0  0  0  0  0  0  0
   -3.3760    4.5568    0.7542 O   0  0  0  0  0  0  0  0  0  0  0  0
   -2.9790   -3.1985   -0.3258 C   0  0  1  0  0  0  0  0  0  0  0  0
   -3.8091   -2.0896   -0.9775 C   0  0  1  0  0  0  0  0  0  0  0  0
   -2.0903   -2.6334    0.7820 C   0  0  1  0  0  0  0  0  0  0  0  0
   -2.9078   -0.9179   -1.3915 C   0  0  1  0  0  0  0  0  0  0  0  0
   -1.2630   -1.4687    0.2390 C   0  0  1  0  0  0  0  0  0  0  0  0
   -3.7249    0.2652   -1.9006 C   0  0  0  0  0  0  0  0  0  0  0  0
    0.7226   -0.4212    0.8215 C   0  0  0  0  0  0  0  0  0  0  0  0
    0.8580    0.8649    0.4500 C   0  0  0  0  0  0  0  0  0  0  0  0
    1.8910   -1.3265    0.7031 C   0  0  0  0  0  0  0  0  0  0  0  0
    3.1275   -0.7311    0.1740 C   0  0  0  0  0  0  0  0  0  0  0  0
    3.1278    0.6158   -0.1813 C   0  0  0  0  0  0  0  0  0  0  0  0
   -0.2515    1.8320    0.5260 C   0  0  0  0  0  0  0  0  0  0  0  0
    4.2846   -1.5001    0.0267 C   0  0  0  0  0  0  0  0  0  0  0  0
    4.2878    1.2037   -0.6869 C   0  0  0  0  0  0  0  0  0  0  0  0
   -0.7005    2.4709   -0.6298 C   0  0  0  0  0  0  0  0  0  0  0  0
   -0.8523    2.1089    1.7541 C   0  0  0  0  0  0  0  0  0  0  0  0
    5.4434   -0.9098   -0.4791 C   0  0  0  0  0  0  0  0  0  0  0  0
    5.4453    0.4394   -0.8352 C   0  0  0  0  0  0  0  0  0  0  0  0
   -1.7504    3.3863   -0.5578 C   0  0  0  0  0  0  0  0  0  0  0  0
   -1.9022    3.0244    1.8263 C   0  0  0  0  0  0  0  0  0  0  0  0
   -2.3511    3.6631    0.6703 C   0  0  0  0  0  0  0  0  0  0  0  0
   -2.3625   -3.6938   -1.0862 H   0  0  0  0  0  0  0  0  0  0  0  0
   -4.5927   -1.7560   -0.2873 H   0  0  0  0  0  0  0  0  0  0  0  0
   -1.4530   -3.4118    1.2139 H   0  0  0  0  0  0  0  0  0  0  0  0
   -2.2300   -1.2235   -2.1996 H   0  0  0  0  0  0  0  0  0  0  0  0
   -0.6257   -1.8449   -0.5754 H   0  0  0  0  0  0  0  0  0  0  0  0
   -4.3654    0.6687   -1.1086 H   0  0  0  0  0  0  0  0  0  0  0  0
   -4.3509   -0.0117   -2.7540 H   0  0  0  0  0  0  0  0  0  0  0  0
   -3.0616    1.0776   -2.2139 H   0  0  0  0  0  0  0  0  0  0  0  0
   -3.3042   -4.8724    0.6234 H   0  0  0  0  0  0  0  0  0  0  0  0
   -3.7813   -2.9043   -2.7581 H   0  0  0  0  0  0  0  0  0  0  0  0
   -3.3395   -1.3234    1.5520 H   0  0  0  0  0  0  0  0  0  0  0  0
    4.2915    2.2545   -0.9654 H   0  0  0  0  0  0  0  0  0  0  0  0
   -0.2367    2.2536   -1.5897 H   0  0  0  0  0  0  0  0  0  0  0  0
   -0.5125    1.6273    2.6677 H   0  0  0  0  0  0  0  0  0  0  0  0
    6.3448   -1.5072   -0.5942 H   0  0  0  0  0  0  0  0  0  0  0  0
   -2.3601    3.2320    2.7896 H   0  0  0  0  0  0  0  0  0  0  0  0
    3.4797   -3.1194    0.6995 H   0  0  0  0  0  0  0  0  0  0  0  0
    7.2809    0.3387   -1.3634 H   0  0  0  0  0  0  0  0  0  0  0  0
   -1.6533    3.6858   -2.4463 H   0  0  0  0  0  0  0  0  0  0  0  0
   -3.6660    4.6201    1.6804 H   0  0  0  0  0  0  0  0  0  0  0  0
  1 15  1  0  0  0  0
  1 16  1  0  0  0  0
  2 16  1  0  0  0  0
  2 18  1  0  0  0  0
  3 12  1  0  0  0  0
  3 41  1  0  0  0  0
  4 13  1  0  0  0  0
  4 42  1  0  0  0  0
  5 14  1  0  0  0  0
  5 43  1  0  0  0  0
  6 19  1  0  0  0  0
  6 22  1  0  0  0  0
  7 20  2  0  0  0  0
  8 24  1  0  0  0  0
  8 49  1  0  0  0  0
  9 29  1  0  0  0  0
  9 50  1  0  0  0  0
 10 30  1  0  0  0  0
 10 51  1  0  0  0  0
 11 32  1  0  0  0  0
 11 52  1  0  0  0  0
 12 13  1  0  0  0  0
 12 14  1  0  0  0  0
 12 33  1  0  0  0  0
 13 15  1  0  0  0  0
 13 34  1  0  0  0  0
 14 16  1  0  0  0  0
 14 35  1  0  0  0  0
 15 17  1  0  0  0  0
 15 36  1  0  0  0  0
 16 37  1  0  0  0  0
 17 38  1  0  0  0  0
 17 39  1  0  0  0  0
 17 40  1  0  0  0  0
 18 19  2  0  0  0  0
 18 20  1  0  0  0  0
 19 23  1  0  0  0  0
 20 21  1  0  0  0  0
 21 22  1  0  0  0  0
 21 24  2  0  0  0  0
 22 25  2  0  0  0  0
 23 26  2  0  0  0  0
 23 27  1  0  0  0  0
 24 28  1  0  0  0  0
 25 29  1  0  0  0  0
 25 44  1  0  0  0  0
 26 30  1  0  0  0  0
 26 45  1  0  0  0  0
 27 31  2  0  0  0  0
 27 46  1  0  0  0  0
 28 29  2  0  0  0  0
 28 47  1  0  0  0  0
 30 32  2  0  0  0  0
 31 32  1  0  0  0  0
 31 48  1  0  0  0  0
M  END
> <PUBCHEM_COMPOUND_CID>
40486293

> <PUBCHEM_CONFORMER_RMSD>
0.8

> <PUBCHEM_CONFORMER_DIVERSEORDER>
1
4
32
5
36
35
28
9
40
26
12
20
8
29
39
34
33
25
10
14
21
27
30
17
19
6
3
2
7
24
37
15
13
11
31
18
38
16
23
22

> <PUBCHEM_MMFF94_PARTIAL_CHARGES>
43
1 -0.56
10 -0.53
11 -0.53
12 0.28
13 0.28
14 0.28
15 0.28
16 0.56
18 0.09
19 0.05
2 -0.36
20 0.47
21 0.09
22 0.08
23 0.03
24 0.08
25 -0.15
26 -0.15
27 -0.15
28 -0.15
29 0.08
3 -0.68
30 0.08
31 -0.15
32 0.08
4 -0.68
41 0.4
42 0.4
43 0.4
44 0.15
45 0.15
46 0.15
47 0.15
48 0.15
49 0.45
5 -0.68
50 0.45
51 0.45
52 0.45
6 -0.16
7 -0.57
8 -0.53
9 -0.53

> <PUBCHEM_EFFECTIVE_ROTOR_COUNT>
4.2

> <PUBCHEM_PHARMACOPHORE_FEATURES>
18
1 1 acceptor
1 10 donor
1 11 donor
1 2 acceptor
1 3 acceptor
1 3 donor
1 4 acceptor
1 4 donor
1 5 acceptor
1 5 donor
1 6 acceptor
1 7 acceptor
1 8 donor
1 9 donor
6 1 12 13 14 15 16 rings
6 21 22 24 25 28 29 rings
6 23 26 27 30 31 32 rings
6 6 18 19 20 21 22 rings

> <PUBCHEM_HEAVY_ATOM_COUNT>
32

> <PUBCHEM_ATOM_DEF_STEREO_COUNT>
5

> <PUBCHEM_ATOM_UDEF_STEREO_COUNT>
0

> <PUBCHEM_BOND_DEF_STEREO_COUNT>
0

> <PUBCHEM_BOND_UDEF_STEREO_COUNT>
0

> <PUBCHEM_ISOTOPIC_ATOM_COUNT>
0

> <PUBCHEM_COMPONENT_COUNT>
1

> <PUBCHEM_CACTVS_TAUTO_COUNT>
162

> <PUBCHEM_CONFORMER_ID>
0269C59500000001

> <PUBCHEM_MMFF94_ENERGY>
101.158

> <PUBCHEM_FEATURE_SELFOVERLAP>
91.453

> <PUBCHEM_SHAPE_FINGERPRINT>
11045515 52 18265053711631280459
11115154 58 18270951471377102375
11297010 23 16891162985781997532
11578080 2 12613622171955728310
12788726 201 18270670975041070027
13540713 5 18260832549839454042
13631057 29 18341612659498285484
13911987 19 17468776520571779244
140371 6 18044109062481162992
14114206 34 18052503683351554037
14251757 5 18412819166853076191
14537116 161 17906407227299319255
14790565 3 18050289159089531369
15276724 80 18411989048221857481
15775530 1 18130204022238897504
16988056 13 17905875235164243581
17138139 8 17623807351019407373
17909252 39 18270396208898422770
1813 80 17842580683647297567
21049683 271 17756717686104264183
21120745 212 18269850842108984141
21641784 216 18189354501023373812
221357 26 18191859231366518799
23536364 44 18336262435395281727
23558518 356 18261967284108655688
23559900 14 17831284374921066623
25147074 1 18261952934876270458
266924 87 18335140921135221134
283562 15 18336550520748459218
3027735 51 18201438021790177375
376196 1 16956756611058005996
38695281 34 17689997834319456425
4353968 344 18411426146636527940
46194498 28 17393314834075668111
469060 322 15719973383526082297
5171179 24 17916579976760884264
5309563 4 18125161781903948943
59025328 239 17270001224886200279
6669772 16 17550108060849746030
70251023 43 18201153372863932530
7164475 11 18411698769015792694

> <PUBCHEM_SHAPE_MULTIPOLES>
593.98
10.32
5.47
1.6
14.81
2.46
-0.13
-4.12
-4.79
-8.38
0.58
-1.5
0.28
-1.51

> <PUBCHEM_SHAPE_SELFOVERLAP>
1310.947

> <PUBCHEM_SHAPE_VOLUME>
315.3

> <PUBCHEM_COORDINATE_TYPE>
2
5
10

$$$$
