439564
  -OEChem-03052615013D

 18 17  0     0  0  0  0  0  0999 V2000
   -0.0178    1.3682    0.0120 O   0  0  0  0  0  0  0  0  0  0  0  0
   -2.6835    1.1360   -0.0201 O   0  0  0  0  0  0  0  0  0  0  0  0
    3.6377   -0.9765   -0.0062 O   0  0  0  0  0  0  0  0  0  0  0  0
    2.6710    1.1876    0.0043 O   0  0  0  0  0  0  0  0  0  0  0  0
   -0.0149   -0.0137    0.0022 C   0  0  0  0  0  0  0  0  0  0  0  0
   -1.1637   -0.7112    0.0002 C   0  0  0  0  0  0  0  0  0  0  0  0
   -2.5178   -0.0806    0.0053 C   0  0  0  0  0  0  0  0  0  0  0  0
    1.2712   -0.7016   -0.0024 C   0  0  0  0  0  0  0  0  0  0  0  0
   -3.6931   -1.0232    0.0061 C   0  0  0  0  0  0  0  0  0  0  0  0
    2.5108   -0.1851   -0.0014 C   0  0  0  0  0  0  0  0  0  0  0  0
   -1.1511   -1.7980   -0.0075 H   0  0  0  0  0  0  0  0  0  0  0  0
    1.2058   -1.7904   -0.0073 H   0  0  0  0  0  0  0  0  0  0  0  0
   -3.4404   -1.9652    0.5005 H   0  0  0  0  0  0  0  0  0  0  0  0
   -4.0027   -1.2185   -1.0236 H   0  0  0  0  0  0  0  0  0  0  0  0
   -4.5190   -0.5680    0.5604 H   0  0  0  0  0  0  0  0  0  0  0  0
   -0.9293    1.6991    0.0196 H   0  0  0  0  0  0  0  0  0  0  0  0
    4.4055   -0.3804   -0.0044 H   0  0  0  0  0  0  0  0  0  0  0  0
    3.6272    1.3624    0.0040 H   0  0  0  0  0  0  0  0  0  0  0  0
  1  5  1  0  0  0  0
  1 16  1  0  0  0  0
  2  7  2  0  0  0  0
  3 10  1  0  0  0  0
  3 17  1  0  0  0  0
  4 10  1  0  0  0  0
  4 18  1  0  0  0  0
  5  6  2  3  0  0  0
  5  8  1  0  0  0  0
  6  7  1  0  0  0  0
  6 11  1  0  0  0  0
  7  9  1  0  0  0  0
  8 10  2  0  0  0  0
  8 12  1  0  0  0  0
  9 13  1  0  0  0  0
  9 14  1  0  0  0  0
  9 15  1  0  0  0  0
M  END
> <PUBCHEM_COMPOUND_CID>
439564

> <PUBCHEM_CONFORMER_RMSD>
0.4

> <PUBCHEM_CONFORMER_DIVERSEORDER>
1
9
7
6
12
8
5
3
10
4
11
2

> <PUBCHEM_MMFF94_PARTIAL_CHARGES>
15
1 -0.53
10 0.15
11 0.15
12 0.15
16 0.45
17 0.45
18 0.45
2 -0.57
3 -0.53
4 -0.53
5 0.08
6 -0.14
7 0.49
8 -0.15
9 0.06

> <PUBCHEM_EFFECTIVE_ROTOR_COUNT>
2

> <PUBCHEM_PHARMACOPHORE_FEATURES>
5
1 1 donor
1 2 acceptor
1 3 donor
1 4 donor
3 3 4 10 anion

> <PUBCHEM_HEAVY_ATOM_COUNT>
10

> <PUBCHEM_ATOM_DEF_STEREO_COUNT>
0

> <PUBCHEM_ATOM_UDEF_STEREO_COUNT>
0

> <PUBCHEM_BOND_DEF_STEREO_COUNT>
0

> <PUBCHEM_BOND_UDEF_STEREO_COUNT>
1

> <PUBCHEM_ISOTOPIC_ATOM_COUNT>
0

> <PUBCHEM_COMPONENT_COUNT>
1

> <PUBCHEM_CACTVS_TAUTO_COUNT>
13

> <PUBCHEM_CONFORMER_ID>
0006B50C00000001

> <PUBCHEM_MMFF94_ENERGY>
16.0192

> <PUBCHEM_FEATURE_SELFOVERLAP>
25.415

> <PUBCHEM_SHAPE_FINGERPRINT>
10219947 1 18272936046013621023
11062470 55 18410012143447389199
12032990 46 18411143532201350679
12932764 1 17385998442811244075
14325111 11 18410575088989701219
14390081 3 18410291419369221817
23552423 10 18261676982415216170
3248919 1 17060063631099778438

> <PUBCHEM_SHAPE_MULTIPOLES>
182.32
6.09
1.25
0.58
0.06
0.27
0
-1.23
0.01
0.01
0
0.04
-0.03
0.01

> <PUBCHEM_SHAPE_SELFOVERLAP>
352.342

> <PUBCHEM_SHAPE_VOLUME>
109

> <PUBCHEM_COORDINATE_TYPE>
2
5
10

$$$$
