439622
  -OEChem-03052615003D

 34 36  0     0  0  0  0  0  0999 V2000
    0.7049    0.8767    0.0055 O   0  0  0  0  0  0  0  0  0  0  0  0
   -1.0635    2.4876   -0.0355 O   0  0  0  0  0  0  0  0  0  0  0  0
   -0.8962   -2.2280    0.0537 O   0  0  0  0  0  0  0  0  0  0  0  0
   -7.0990   -0.0120   -0.0309 O   0  0  0  0  0  0  0  0  0  0  0  0
    7.1127    0.8763   -0.0254 O   0  0  0  0  0  0  0  0  0  0  0  0
   -1.4890    0.1234    0.0210 C   0  0  0  0  0  0  0  0  0  0  0  0
   -2.9498    0.0875    0.0073 C   0  0  0  0  0  0  0  0  0  0  0  0
    0.7815   -0.4939    0.0166 C   0  0  0  0  0  0  0  0  0  0  0  0
   -0.5828   -1.0552    0.0284 C   0  0  0  0  0  0  0  0  0  0  0  0
   -0.6565    1.1801    0.0055 C   0  0  0  0  0  0  0  0  0  0  0  0
    1.9090   -1.2057    0.0181 C   0  0  0  0  0  0  0  0  0  0  0  0
    3.2784   -0.6571    0.0065 C   0  0  0  0  0  0  0  0  0  0  0  0
   -3.6352    0.0431   -1.2067 C   0  0  0  0  0  0  0  0  0  0  0  0
   -3.6587    0.0984    1.2086 C   0  0  0  0  0  0  0  0  0  0  0  0
   -5.0297    0.0097   -1.2194 C   0  0  0  0  0  0  0  0  0  0  0  0
   -5.0532    0.0648    1.1957 C   0  0  0  0  0  0  0  0  0  0  0  0
    3.9094   -0.4382   -1.2062 C   0  0  0  0  0  0  0  0  0  0  0  0
    3.9037   -0.3735    1.2089 C   0  0  0  0  0  0  0  0  0  0  0  0
   -5.7387    0.0205   -0.0182 C   0  0  0  0  0  0  0  0  0  0  0  0
    5.2046    0.0799   -1.2170 C   0  0  0  0  0  0  0  0  0  0  0  0
    5.1987    0.1445    1.1982 C   0  0  0  0  0  0  0  0  0  0  0  0
    5.8492    0.3711   -0.0147 C   0  0  0  0  0  0  0  0  0  0  0  0
    1.8639   -2.2924    0.0268 H   0  0  0  0  0  0  0  0  0  0  0  0
   -3.0965    0.0341   -2.1512 H   0  0  0  0  0  0  0  0  0  0  0  0
   -3.1386    0.1327    2.1628 H   0  0  0  0  0  0  0  0  0  0  0  0
   -5.5519   -0.0247   -2.1718 H   0  0  0  0  0  0  0  0  0  0  0  0
   -5.6000    0.0735    2.1347 H   0  0  0  0  0  0  0  0  0  0  0  0
    3.4174   -0.6617   -2.1491 H   0  0  0  0  0  0  0  0  0  0  0  0
    3.4073   -0.5464    2.1600 H   0  0  0  0  0  0  0  0  0  0  0  0
    5.7005    0.2518   -2.1685 H   0  0  0  0  0  0  0  0  0  0  0  0
    5.6957    0.3694    2.1379 H   0  0  0  0  0  0  0  0  0  0  0  0
   -2.0352    2.5103   -0.0383 H   0  0  0  0  0  0  0  0  0  0  0  0
   -7.4050   -0.0405   -0.9538 H   0  0  0  0  0  0  0  0  0  0  0  0
    7.4075    0.9686   -0.9477 H   0  0  0  0  0  0  0  0  0  0  0  0
  1  8  1  0  0  0  0
  1 10  1  0  0  0  0
  2 10  1  0  0  0  0
  2 32  1  0  0  0  0
  3  9  2  0  0  0  0
  4 19  1  0  0  0  0
  4 33  1  0  0  0  0
  5 22  1  0  0  0  0
  5 34  1  0  0  0  0
  6  7  1  0  0  0  0
  6  9  1  0  0  0  0
  6 10  2  0  0  0  0
  7 13  2  0  0  0  0
  7 14  1  0  0  0  0
  8  9  1  0  0  0  0
  8 11  2  3  0  0  0
 11 12  1  0  0  0  0
 11 23  1  0  0  0  0
 12 17  2  0  0  0  0
 12 18  1  0  0  0  0
 13 15  1  0  0  0  0
 13 24  1  0  0  0  0
 14 16  2  0  0  0  0
 14 25  1  0  0  0  0
 15 19  2  0  0  0  0
 15 26  1  0  0  0  0
 16 19  1  0  0  0  0
 16 27  1  0  0  0  0
 17 20  1  0  0  0  0
 17 28  1  0  0  0  0
 18 21  2  0  0  0  0
 18 29  1  0  0  0  0
 20 22  2  0  0  0  0
 20 30  1  0  0  0  0
 21 22  1  0  0  0  0
 21 31  1  0  0  0  0
M  END
> <PUBCHEM_COMPOUND_CID>
439622

> <PUBCHEM_CONFORMER_RMSD>
0.6

> <PUBCHEM_CONFORMER_DIVERSEORDER>
1
2
3

> <PUBCHEM_MMFF94_PARTIAL_CHARGES>
34
1 -0.15
10 0.15
11 -0.18
12 0.03
13 -0.15
14 -0.15
15 -0.15
16 -0.15
17 -0.15
18 -0.15
19 0.08
2 -0.53
20 -0.15
21 -0.15
22 0.08
23 0.15
24 0.15
25 0.15
26 0.15
27 0.15
28 0.15
29 0.15
3 -0.57
30 0.15
31 0.15
32 0.45
33 0.45
34 0.45
4 -0.53
5 -0.53
6 -0.01
7 0.03
8 0.09
9 0.54

> <PUBCHEM_EFFECTIVE_ROTOR_COUNT>
2.2

> <PUBCHEM_PHARMACOPHORE_FEATURES>
8
1 1 acceptor
1 2 donor
1 3 acceptor
1 4 donor
1 5 donor
5 1 6 8 9 10 rings
6 12 17 18 20 21 22 rings
6 7 13 14 15 16 19 rings

> <PUBCHEM_HEAVY_ATOM_COUNT>
22

> <PUBCHEM_ATOM_DEF_STEREO_COUNT>
0

> <PUBCHEM_ATOM_UDEF_STEREO_COUNT>
0

> <PUBCHEM_BOND_DEF_STEREO_COUNT>
0

> <PUBCHEM_BOND_UDEF_STEREO_COUNT>
1

> <PUBCHEM_ISOTOPIC_ATOM_COUNT>
0

> <PUBCHEM_COMPONENT_COUNT>
1

> <PUBCHEM_CACTVS_TAUTO_COUNT>
38

> <PUBCHEM_CONFORMER_ID>
0006B54600000001

> <PUBCHEM_MMFF94_ENERGY>
63.6052

> <PUBCHEM_FEATURE_SELFOVERLAP>
40.597

> <PUBCHEM_SHAPE_FINGERPRINT>
10 15 17458341983841925228
10670039 82 18189348883643864148
10906281 52 18340785791708468765
10968037 39 18131631193016334319
11287383 113 16153430553582089191
12107183 9 15000184529900114196
12236239 1 17632578228388281283
12390115 104 17986685782829566817
12516196 113 18343301470408496433
12596602 18 17022619780360323272
12730499 353 17489593359656590182
13140716 1 18265615566304718442
13288520 33 15769774663495267983
13533116 47 18262230024612705426
13583140 156 16805331014875727593
14123256 10 18341894091145365428
14251764 18 18113340791724937977
14528608 73 17132392826375013182
14840074 17 18273213097189731189
14933364 13 15913330195192974131
15183329 4 15267348404976251746
15849732 13 17775283872722430557
17834072 33 16128654150145994950
17844677 252 15339122350752206882
19489759 90 15140680276321412645
21150785 3 18060136569916209783
21641784 216 18115320976836822804
221357 26 16773800282030906288
2297311 6 15051734188229059411
23035841 295 16630807699136783871
23198884 109 16845577512845262786
23402539 116 18342734126534557615
23536379 177 15430033245038884065
23559900 14 15841539804034910595
23569914 2 15334856078106254600
23569943 247 17629216921778351022
283562 15 18339926996266586369
34797466 226 18131637798607866788
3545911 37 18260550018142539206
4073 2 17203322364512014414
4325135 7 17775284967490782300
4340502 62 16370727010799399770
4463277 17 18343302548487459693
5104073 3 18192151494883638072
542803 24 17060338517754925554
5486654 2 18409450292863411258
59755656 215 9223241744838063672
67856867 119 15213598839108131215
7495541 125 17095814303369588053

> <PUBCHEM_SHAPE_MULTIPOLES>
423.4
16.63
1.29
1.16
2.66
0.14
-0.01
2.03
-0.23
0.08
0
0.06
-0.02
0

> <PUBCHEM_SHAPE_SELFOVERLAP>
936.791

> <PUBCHEM_SHAPE_VOLUME>
227.9

> <PUBCHEM_COORDINATE_TYPE>
2
5
10

$$$$
