44234789
  -OEChem-03052615023D

 46 48  0     0  0  0  0  0  0999 V2000
   -1.3612    1.4880   -1.8491 O   0  0  0  0  0  0  0  0  0  0  0  0
   -3.1609   -2.3687    1.3718 O   0  0  0  0  0  0  0  0  0  0  0  0
    4.9939    0.5532    0.8551 C   0  0  0  0  0  0  0  0  0  0  0  0
    3.7397    0.1916    0.1338 C   0  0  0  0  0  0  0  0  0  0  0  0
    4.7199    1.6068    1.9729 C   0  0  0  0  0  0  0  0  0  0  0  0
    6.0503    1.1636   -0.1174 C   0  0  0  0  0  0  0  0  0  0  0  0
    5.7229   -0.6324    1.5705 C   0  0  0  0  0  0  0  0  0  0  0  0
    0.1265   -0.8462   -1.9338 C   0  0  0  0  0  0  0  0  0  0  0  0
    1.3906   -0.4835   -1.2107 C   0  0  0  0  0  0  0  0  0  0  0  0
   -1.0889   -0.7350   -1.0519 C   0  0  0  0  0  0  0  0  0  0  0  0
    3.0135    1.1749   -0.5380 C   0  0  0  0  0  0  0  0  0  0  0  0
    3.2913   -1.1293    0.1335 C   0  0  0  0  0  0  0  0  0  0  0  0
    1.8390    0.8374   -1.2102 C   0  0  0  0  0  0  0  0  0  0  0  0
    2.1167   -1.4668   -0.5387 C   0  0  0  0  0  0  0  0  0  0  0  0
   -1.5552   -1.7145   -0.2545 C   0  0  0  0  0  0  0  0  0  0  0  0
   -1.7648    0.5978   -1.1078 C   0  0  0  0  0  0  0  0  0  0  0  0
   -2.9409    0.8268   -0.2536 C   0  0  0  0  0  0  0  0  0  0  0  0
   -3.4128   -0.1800    0.5822 C   0  0  0  0  0  0  0  0  0  0  0  0
   -2.7443   -1.4900    0.6241 C   0  0  0  0  0  0  0  0  0  0  0  0
   -0.9765   -3.1020   -0.1646 C   0  0  0  0  0  0  0  0  0  0  0  0
   -3.5877    2.0691   -0.2848 C   0  0  0  0  0  0  0  0  0  0  0  0
   -4.5331    0.0518    1.3911 C   0  0  0  0  0  0  0  0  0  0  0  0
   -4.7030    2.2974    0.5214 C   0  0  0  0  0  0  0  0  0  0  0  0
   -5.1751    1.2898    1.3587 C   0  0  0  0  0  0  0  0  0  0  0  0
    5.6359    1.8523    2.5227 H   0  0  0  0  0  0  0  0  0  0  0  0
    4.3273    2.5443    1.5641 H   0  0  0  0  0  0  0  0  0  0  0  0
    3.9860    1.2274    2.6938 H   0  0  0  0  0  0  0  0  0  0  0  0
    6.9831    1.4030    0.4062 H   0  0  0  0  0  0  0  0  0  0  0  0
    6.2882    0.4606   -0.9245 H   0  0  0  0  0  0  0  0  0  0  0  0
    5.6933    2.0899   -0.5806 H   0  0  0  0  0  0  0  0  0  0  0  0
    6.6334   -0.2885    2.0763 H   0  0  0  0  0  0  0  0  0  0  0  0
    5.0864   -1.0927    2.3351 H   0  0  0  0  0  0  0  0  0  0  0  0
    6.0266   -1.4067    0.8563 H   0  0  0  0  0  0  0  0  0  0  0  0
    0.0239   -0.2243   -2.8331 H   0  0  0  0  0  0  0  0  0  0  0  0
    0.2205   -1.8549   -2.3535 H   0  0  0  0  0  0  0  0  0  0  0  0
    3.3402    2.2107   -0.5549 H   0  0  0  0  0  0  0  0  0  0  0  0
    3.8180   -1.9328    0.6364 H   0  0  0  0  0  0  0  0  0  0  0  0
    1.2912    1.6146   -1.7349 H   0  0  0  0  0  0  0  0  0  0  0  0
    1.7957   -2.5032   -0.5391 H   0  0  0  0  0  0  0  0  0  0  0  0
   -0.3025   -3.3527   -0.9850 H   0  0  0  0  0  0  0  0  0  0  0  0
   -0.4330   -3.2231    0.7780 H   0  0  0  0  0  0  0  0  0  0  0  0
   -1.7742   -3.8529   -0.1987 H   0  0  0  0  0  0  0  0  0  0  0  0
   -3.2387    2.8718   -0.9291 H   0  0  0  0  0  0  0  0  0  0  0  0
   -4.9214   -0.7181    2.0526 H   0  0  0  0  0  0  0  0  0  0  0  0
   -5.2030    3.2613    0.4960 H   0  0  0  0  0  0  0  0  0  0  0  0
   -6.0434    1.4675    1.9864 H   0  0  0  0  0  0  0  0  0  0  0  0
  1 16  2  0  0  0  0
  2 19  2  0  0  0  0
  3  4  1  0  0  0  0
  3  5  1  0  0  0  0
  3  6  1  0  0  0  0
  3  7  1  0  0  0  0
  4 11  2  0  0  0  0
  4 12  1  0  0  0  0
  5 25  1  0  0  0  0
  5 26  1  0  0  0  0
  5 27  1  0  0  0  0
  6 28  1  0  0  0  0
  6 29  1  0  0  0  0
  6 30  1  0  0  0  0
  7 31  1  0  0  0  0
  7 32  1  0  0  0  0
  7 33  1  0  0  0  0
  8  9  1  0  0  0  0
  8 10  1  0  0  0  0
  8 34  1  0  0  0  0
  8 35  1  0  0  0  0
  9 13  2  0  0  0  0
  9 14  1  0  0  0  0
 10 15  2  0  0  0  0
 10 16  1  0  0  0  0
 11 13  1  0  0  0  0
 11 36  1  0  0  0  0
 12 14  2  0  0  0  0
 12 37  1  0  0  0  0
 13 38  1  0  0  0  0
 14 39  1  0  0  0  0
 15 19  1  0  0  0  0
 15 20  1  0  0  0  0
 16 17  1  0  0  0  0
 17 18  1  0  0  0  0
 17 21  2  0  0  0  0
 18 19  1  0  0  0  0
 18 22  2  0  0  0  0
 20 40  1  0  0  0  0
 20 41  1  0  0  0  0
 20 42  1  0  0  0  0
 21 23  1  0  0  0  0
 21 43  1  0  0  0  0
 22 24  1  0  0  0  0
 22 44  1  0  0  0  0
 23 24  2  0  0  0  0
 23 45  1  0  0  0  0
 24 46  1  0  0  0  0
M  END
> <PUBCHEM_COMPOUND_CID>
44234789

> <PUBCHEM_CONFORMER_RMSD>
0.6

> <PUBCHEM_CONFORMER_DIVERSEORDER>
5
14
6
13
11
8
10
1
12
7
3
15
9
2
4

> <PUBCHEM_MMFF94_PARTIAL_CHARGES>
29
1 -0.57
10 -0.12
11 -0.15
12 -0.15
13 -0.15
14 -0.15
15 -0.12
16 0.47
17 0.09
18 0.09
19 0.47
2 -0.57
20 0.14
21 -0.15
22 -0.15
23 -0.15
24 -0.15
3 0.14
36 0.15
37 0.15
38 0.15
39 0.15
4 -0.14
43 0.15
44 0.15
45 0.15
46 0.15
8 0.28
9 -0.14

> <PUBCHEM_EFFECTIVE_ROTOR_COUNT>
3

> <PUBCHEM_PHARMACOPHORE_FEATURES>
6
1 1 acceptor
1 2 acceptor
4 3 5 6 7 hydrophobe
6 10 15 16 17 18 19 rings
6 17 18 21 22 23 24 rings
6 4 9 11 12 13 14 rings

> <PUBCHEM_HEAVY_ATOM_COUNT>
24

> <PUBCHEM_ATOM_DEF_STEREO_COUNT>
0

> <PUBCHEM_ATOM_UDEF_STEREO_COUNT>
0

> <PUBCHEM_BOND_DEF_STEREO_COUNT>
0

> <PUBCHEM_BOND_UDEF_STEREO_COUNT>
0

> <PUBCHEM_ISOTOPIC_ATOM_COUNT>
0

> <PUBCHEM_COMPONENT_COUNT>
1

> <PUBCHEM_CACTVS_TAUTO_COUNT>
5

> <PUBCHEM_CONFORMER_ID>
02A2F82500000005

> <PUBCHEM_MMFF94_ENERGY>
74.4826

> <PUBCHEM_FEATURE_SELFOVERLAP>
30.467

> <PUBCHEM_SHAPE_FINGERPRINT>
10319926 262 18335994090081100434
10498660 4 15482670186744061738
10692045 39 18057321691580276114
10928967 22 15357686501244625890
11089746 13 17203317910883758744
11370993 144 18412540994891202470
11552529 35 17972594661352546394
12403259 118 18342457088106251588
12422481 6 17822568296490366530
12596602 18 17458347437728055888
12633257 1 18186523223805282804
12670546 177 10231757786093642010
12892183 10 17895758387383447679
13103583 49 17167867469185301754
13914758 101 16877935032840308591
13994607 96 16988566839853305931
14178342 30 18261682570236785847
14341114 176 18114181913403135140
14341114 328 17967819374846531052
14420673 8 18043247947250882898
14848178 5 12757141377606371680
14951699 99 18269833280715737560
15183329 4 14620804782436368588
15188451 53 17240492446353079483
15209289 33 16805321098149597738
15209294 21 18413669123495571342
15238133 3 18341341036986972516
16110190 28 18186242840172323532
16994733 274 16773239471266805833
17870717 6 9295290543130869185
1813 80 15719400511992894910
19377110 9 16733272334976062724
193927 3 12973605517173598594
19784866 240 13479137882381096957
20775438 99 8787170940953651105
20871999 31 10663821866881346863
21033648 29 18272099274572629701
21401589 2 18059858355088578835
21637258 2 14345803776970214233
21713013 43 8574711286720299947
21756936 100 18201153360506363292
21859007 373 17169257149331636613
221357 26 9583513201015216741
22393880 68 9799419901584078132
23379529 103 8429724194793731529
23503953 91 18187370938590660269
23559900 14 18196117480643870303
2838139 119 16056881290943915360
2871803 45 9583509898006167772
3737641 26 16154255102062985186
4259306 186 12107790696282574584
46194498 28 8862645911672013922
463206 1 12180142993723184409
474113 269 16877947170492169723
484985 159 13190606218864106029
5104073 3 18262504988555554416
56616090 284 9871745784738005357
57724786 102 17346048783380823450
58807428 26 18113905918546595259
5924683 9 18337952398021625839
59755656 520 15482401944414196598
7064713 232 18408327691512226245
7097593 13 18113056034491224166
7970288 3 14273746156714480113
90316 7 17313394396417254445
9981440 41 18410862027903849995

> <PUBCHEM_SHAPE_MULTIPOLES>
482.17
12.84
2.51
1.69
9.42
0.83
0
-7.21
-7.22
-1.95
-0.36
0.24
-0.16
0.63

> <PUBCHEM_SHAPE_SELFOVERLAP>
1050.636

> <PUBCHEM_SHAPE_VOLUME>
262

> <PUBCHEM_COORDINATE_TYPE>
2
5
10

$$$$
