44259439
  -OEChem-03052615073D

 50 53  0     1  0  0  0  0  0999 V2000
    0.7503   -2.9920   -0.1065 O   0  0  0  0  0  0  0  0  0  0  0  0
    0.5525   -0.9935    1.1073 O   0  0  0  0  0  0  0  0  0  0  0  0
    3.5034   -1.6412   -1.9608 O   0  0  0  0  0  0  0  0  0  0  0  0
    2.9727   -2.2584    1.5934 O   0  0  0  0  0  0  0  0  0  0  0  0
    3.1465   -4.6732   -0.0096 O   0  0  0  0  0  0  0  0  0  0  0  0
   -1.7534    1.5844   -0.1678 O   0  0  0  0  0  0  0  0  0  0  0  0
   -1.9105   -2.2850    1.0998 O   0  0  0  0  0  0  0  0  0  0  0  0
   -4.4880   -2.3292    0.6642 O   0  0  0  0  0  0  0  0  0  0  0  0
   -6.4255    1.6728   -1.0019 O   0  0  0  0  0  0  0  0  0  0  0  0
    2.5756    3.5595   -2.3059 O   0  0  0  0  0  0  0  0  0  0  0  0
    3.1756    3.0495    2.4182 O   0  0  0  0  0  0  0  0  0  0  0  0
    4.0219    4.0912   -0.0045 O   0  0  0  0  0  0  0  0  0  0  0  0
    3.4960   -2.4135   -0.7621 C   0  0  1  0  0  0  0  0  0  0  0  0
    2.7268   -1.6524    0.3239 C   0  0  1  0  0  0  0  0  0  0  0  0
    2.8535   -3.7693   -1.0731 C   0  0  2  0  0  0  0  0  0  0  0  0
    1.2220   -1.6522    0.0363 C   0  0  1  0  0  0  0  0  0  0  0  0
    1.3368   -3.6554   -1.2290 C   0  0  0  0  0  0  0  0  0  0  0  0
   -0.5943   -0.3625    0.6764 C   0  0  0  0  0  0  0  0  0  0  0  0
   -0.6134    0.9105    0.2409 C   0  0  0  0  0  0  0  0  0  0  0  0
   -1.8660   -1.1240    0.7151 C   0  0  0  0  0  0  0  0  0  0  0  0
   -3.0702   -0.4076    0.2679 C   0  0  0  0  0  0  0  0  0  0  0  0
   -2.9498    0.9151   -0.1517 C   0  0  0  0  0  0  0  0  0  0  0  0
    0.6007    1.7435    0.1767 C   0  0  0  0  0  0  0  0  0  0  0  0
   -4.3167   -1.0386    0.2638 C   0  0  0  0  0  0  0  0  0  0  0  0
   -4.0774    1.6169   -0.5793 C   0  0  0  0  0  0  0  0  0  0  0  0
    1.3265    2.0092    1.3376 C   0  0  0  0  0  0  0  0  0  0  0  0
    1.0238    2.2664   -1.0453 C   0  0  0  0  0  0  0  0  0  0  0  0
   -5.4430   -0.3347   -0.1643 C   0  0  0  0  0  0  0  0  0  0  0  0
   -5.3238    0.9904   -0.5852 C   0  0  0  0  0  0  0  0  0  0  0  0
    2.1730    3.0548   -1.1062 C   0  0  0  0  0  0  0  0  0  0  0  0
    2.4756    2.7976    1.2769 C   0  0  0  0  0  0  0  0  0  0  0  0
    2.8987    3.3205    0.0550 C   0  0  0  0  0  0  0  0  0  0  0  0
    4.5348   -2.5580   -0.4421 H   0  0  0  0  0  0  0  0  0  0  0  0
    3.0762   -0.6154    0.3896 H   0  0  0  0  0  0  0  0  0  0  0  0
    3.2786   -4.1924   -1.9904 H   0  0  0  0  0  0  0  0  0  0  0  0
    1.0488   -1.1188   -0.9102 H   0  0  0  0  0  0  0  0  0  0  0  0
    1.0695   -3.1167   -2.1454 H   0  0  0  0  0  0  0  0  0  0  0  0
    0.8836   -4.6507   -1.2810 H   0  0  0  0  0  0  0  0  0  0  0  0
    4.0388   -2.1201   -2.6162 H   0  0  0  0  0  0  0  0  0  0  0  0
    3.9298   -2.2133    1.7588 H   0  0  0  0  0  0  0  0  0  0  0  0
    2.7539   -5.5329   -0.2380 H   0  0  0  0  0  0  0  0  0  0  0  0
   -3.9869    2.6494   -0.9074 H   0  0  0  0  0  0  0  0  0  0  0  0
    0.9976    1.6107    2.2951 H   0  0  0  0  0  0  0  0  0  0  0  0
    0.4611    2.0579   -1.9529 H   0  0  0  0  0  0  0  0  0  0  0  0
   -6.4139   -0.8246   -0.1681 H   0  0  0  0  0  0  0  0  0  0  0  0
   -3.6415   -2.7175    0.9333 H   0  0  0  0  0  0  0  0  0  0  0  0
   -7.2006    1.0885   -0.9404 H   0  0  0  0  0  0  0  0  0  0  0  0
    1.9534    3.2721   -2.9961 H   0  0  0  0  0  0  0  0  0  0  0  0
    2.7367    2.6062    3.1644 H   0  0  0  0  0  0  0  0  0  0  0  0
    4.1593    4.3628   -0.9287 H   0  0  0  0  0  0  0  0  0  0  0  0
  1 16  1  0  0  0  0
  1 17  1  0  0  0  0
  2 16  1  0  0  0  0
  2 18  1  0  0  0  0
  3 13  1  0  0  0  0
  3 39  1  0  0  0  0
  4 14  1  0  0  0  0
  4 40  1  0  0  0  0
  5 15  1  0  0  0  0
  5 41  1  0  0  0  0
  6 19  1  0  0  0  0
  6 22  1  0  0  0  0
  7 20  2  0  0  0  0
  8 24  1  0  0  0  0
  8 46  1  0  0  0  0
  9 29  1  0  0  0  0
  9 47  1  0  0  0  0
 10 30  1  0  0  0  0
 10 48  1  0  0  0  0
 11 31  1  0  0  0  0
 11 49  1  0  0  0  0
 12 32  1  0  0  0  0
 12 50  1  0  0  0  0
 13 14  1  0  0  0  0
 13 15  1  0  0  0  0
 13 33  1  0  0  0  0
 14 16  1  0  0  0  0
 14 34  1  0  0  0  0
 15 17  1  0  0  0  0
 15 35  1  0  0  0  0
 16 36  1  0  0  0  0
 17 37  1  0  0  0  0
 17 38  1  0  0  0  0
 18 19  2  0  0  0  0
 18 20  1  0  0  0  0
 19 23  1  0  0  0  0
 20 21  1  0  0  0  0
 21 22  1  0  0  0  0
 21 24  2  0  0  0  0
 22 25  2  0  0  0  0
 23 26  2  0  0  0  0
 23 27  1  0  0  0  0
 24 28  1  0  0  0  0
 25 29  1  0  0  0  0
 25 42  1  0  0  0  0
 26 31  1  0  0  0  0
 26 43  1  0  0  0  0
 27 30  2  0  0  0  0
 27 44  1  0  0  0  0
 28 29  2  0  0  0  0
 28 45  1  0  0  0  0
 30 32  1  0  0  0  0
 31 32  2  0  0  0  0
M  END
> <PUBCHEM_COMPOUND_CID>
44259439

> <PUBCHEM_CONFORMER_RMSD>
0.8

> <PUBCHEM_CONFORMER_DIVERSEORDER>
2
39
16
40
26
34
36
12
27
41
23
19
25
44
38
20
35
28
3
31
43
22
13
17
37
24
11
14
21
30
33
42
4
18
9
5
7
8
15
6
10
32
29
1

> <PUBCHEM_MMFF94_PARTIAL_CHARGES>
44
1 -0.56
10 -0.53
11 -0.53
12 -0.53
13 0.28
14 0.28
15 0.28
16 0.56
17 0.28
18 0.09
19 0.05
2 -0.36
20 0.47
21 0.09
22 0.08
23 0.03
24 0.08
25 -0.15
26 -0.15
27 -0.15
28 -0.15
29 0.08
3 -0.68
30 0.08
31 0.08
32 0.08
39 0.4
4 -0.68
40 0.4
41 0.4
42 0.15
43 0.15
44 0.15
45 0.15
46 0.45
47 0.45
48 0.45
49 0.45
5 -0.68
50 0.45
6 -0.16
7 -0.57
8 -0.53
9 -0.53

> <PUBCHEM_EFFECTIVE_ROTOR_COUNT>
4.2

> <PUBCHEM_PHARMACOPHORE_FEATURES>
19
1 1 acceptor
1 10 donor
1 11 donor
1 12 donor
1 2 acceptor
1 3 acceptor
1 3 donor
1 4 acceptor
1 4 donor
1 5 acceptor
1 5 donor
1 6 acceptor
1 7 acceptor
1 8 donor
1 9 donor
6 1 13 14 15 16 17 rings
6 21 22 24 25 28 29 rings
6 23 26 27 30 31 32 rings
6 6 18 19 20 21 22 rings

> <PUBCHEM_HEAVY_ATOM_COUNT>
32

> <PUBCHEM_ATOM_DEF_STEREO_COUNT>
2

> <PUBCHEM_ATOM_UDEF_STEREO_COUNT>
2

> <PUBCHEM_BOND_DEF_STEREO_COUNT>
0

> <PUBCHEM_BOND_UDEF_STEREO_COUNT>
0

> <PUBCHEM_ISOTOPIC_ATOM_COUNT>
0

> <PUBCHEM_COMPONENT_COUNT>
1

> <PUBCHEM_CACTVS_TAUTO_COUNT>
195

> <PUBCHEM_CONFORMER_ID>
02A3586F00000002

> <PUBCHEM_MMFF94_ENERGY>
100.8675

> <PUBCHEM_FEATURE_SELFOVERLAP>
96.529

> <PUBCHEM_SHAPE_FINGERPRINT>
10190108 129 17548989201275710867
1100329 8 17910117906638514377
11045515 52 17975986357970058388
11963148 33 17758107486383426811
12156800 1 15431976013777060668
12160290 23 17038678967779866522
12422481 6 18192124162123456864
12788726 201 17469889878683546066
131258 43 17773053977168206278
13140716 1 18335419037721832977
133893 2 18265638557175282152
13540713 4 18259989280323940531
140371 6 18270405966768681355
15230672 131 18194120953499078508
15439362 3 18410290307168351757
15475509 8 17838341779276817253
15664445 248 18265613191330650826
15775530 1 17970365891000268595
17492 54 18189075165330389676
1813 80 18196369208776950947
20028762 73 17263291025908547927
20600515 1 17978209583466570224
20642791 239 17970656041831541414
20775438 99 18267283483112365959
21120745 212 17625843569270523068
22182313 1 18188499085535538771
23366157 5 18113334223822955369
23559900 14 18409728443962540317
24771750 20 18189354504806534333
3004659 81 17898858941518518678
3298306 158 18268435822204249452
38695281 34 18269272537968544424
4017518 198 18268716198624244932
4280585 95 18191581947998054138
46194498 28 18409163308266560455
495365 180 18271518792668571673
5081480 168 18263353707978560301
5265222 85 17904772433550191172
59755656 215 18336261322978081460
6443956 14 18341892944283810376
6669772 16 18057331784911171108
9981440 41 18119809359652902465

> <PUBCHEM_SHAPE_MULTIPOLES>
588.11
9.82
5.99
1.5
15.46
0.87
-0.04
-0.72
-1.88
-9.9
-0.98
-1.47
-0.7
1.74

> <PUBCHEM_SHAPE_SELFOVERLAP>
1303.77

> <PUBCHEM_SHAPE_VOLUME>
310.6

> <PUBCHEM_COORDINATE_TYPE>
2
5
10

$$$$
