44256961
  -OEChem-03052615063D

 62 65  0     1  0  0  0  0  0999 V2000
    1.1879   -1.0482    0.2379 O   0  0  0  0  0  0  0  0  0  0  0  0
   -0.5583   -1.1522   -1.3271 O   0  0  0  0  0  0  0  0  0  0  0  0
    3.3361   -3.6483    1.6948 O   0  0  0  0  0  0  0  0  0  0  0  0
    2.5141   -4.8271   -0.8116 O   0  0  0  0  0  0  0  0  0  0  0  0
    1.7411   -2.4928   -2.1283 O   0  0  0  0  0  0  0  0  0  0  0  0
    3.7736   -0.2404    0.8790 O   0  0  0  0  0  0  0  0  0  0  0  0
   -2.6367    1.4572    0.2720 O   0  3  0  0  0  0  0  0  0  0  0  0
    4.8136    1.1325    2.4188 O   0  0  0  0  0  0  0  0  0  0  0  0
   -5.4400   -2.4477   -0.4326 O   0  0  0  0  0  0  0  0  0  0  0  0
    2.1604    2.5833   -2.7366 O   0  0  0  0  0  0  0  0  0  0  0  0
   -7.2711    1.4998    1.4899 O   0  0  0  0  0  0  0  0  0  0  0  0
    2.1030    3.0354    2.0309 O   0  0  0  0  0  0  0  0  0  0  0  0
    3.3602    3.4614   -0.4001 O   0  0  0  0  0  0  0  0  0  0  0  0
    2.7100   -2.9164    0.6441 C   0  0  1  0  0  0  0  0  0  0  0  0
    1.7560   -3.8392   -0.1189 C   0  0  1  0  0  0  0  0  0  0  0  0
    1.9426   -1.7302    1.2448 C   0  0  1  0  0  0  0  0  0  0  0  0
    0.9035   -3.0434   -1.1070 C   0  0  1  0  0  0  0  0  0  0  0  0
    0.2122   -1.8889   -0.3823 C   0  0  1  0  0  0  0  0  0  0  0  0
    2.8879   -0.7136    1.8771 C   0  0  0  0  0  0  0  0  0  0  0  0
   -1.6679   -0.5835   -0.7455 C   0  0  0  0  0  0  0  0  0  0  0  0
   -1.6101    0.8134   -0.2094 C   0  0  0  0  0  0  0  0  0  0  0  0
   -2.8515   -1.2057   -0.6714 C   0  0  0  0  0  0  0  0  0  0  0  0
   -4.0137   -0.5319   -0.1035 C   0  0  0  0  0  0  0  0  0  0  0  0
   -0.3036    1.5103   -0.2588 C   0  0  0  0  0  0  0  0  0  0  0  0
    4.6959    0.6879    1.2849 C   0  0  0  0  0  0  0  0  0  0  0  0
   -3.8726    0.7870    0.3405 C   0  0  0  0  0  0  0  0  0  0  0  0
   -5.2569   -1.1642   -0.0096 C   0  0  0  0  0  0  0  0  0  0  0  0
   -4.9661    1.4693    0.8749 C   0  0  0  0  0  0  0  0  0  0  0  0
    0.3262    1.7238   -1.4850 C   0  0  0  0  0  0  0  0  0  0  0  0
    0.2972    1.9523    0.9199 C   0  0  0  0  0  0  0  0  0  0  0  0
    5.5597    1.0953    0.1300 C   0  0  0  0  0  0  0  0  0  0  0  0
   -6.3491   -0.4798    0.5269 C   0  0  0  0  0  0  0  0  0  0  0  0
   -6.2039    0.8354    0.9680 C   0  0  0  0  0  0  0  0  0  0  0  0
    1.5565    2.3794   -1.5324 C   0  0  0  0  0  0  0  0  0  0  0  0
    1.5275    2.6078    0.8725 C   0  0  0  0  0  0  0  0  0  0  0  0
    2.1571    2.8215   -0.3538 C   0  0  0  0  0  0  0  0  0  0  0  0
    1.4793    2.1001   -3.8929 C   0  0  0  0  0  0  0  0  0  0  0  0
    3.5065   -2.5835   -0.0307 H   0  0  0  0  0  0  0  0  0  0  0  0
    1.1106   -4.3715    0.5908 H   0  0  0  0  0  0  0  0  0  0  0  0
    1.2559   -2.0755    2.0290 H   0  0  0  0  0  0  0  0  0  0  0  0
    0.1802   -3.6894   -1.6152 H   0  0  0  0  0  0  0  0  0  0  0  0
   -0.4396   -2.3099    0.3981 H   0  0  0  0  0  0  0  0  0  0  0  0
    3.4574   -1.1741    2.6925 H   0  0  0  0  0  0  0  0  0  0  0  0
    2.3127    0.1264    2.2792 H   0  0  0  0  0  0  0  0  0  0  0  0
    2.6418   -3.9585    2.3009 H   0  0  0  0  0  0  0  0  0  0  0  0
    1.8865   -5.3908   -1.2954 H   0  0  0  0  0  0  0  0  0  0  0  0
    2.2579   -1.7659   -1.7417 H   0  0  0  0  0  0  0  0  0  0  0  0
   -2.9623   -2.2136   -1.0574 H   0  0  0  0  0  0  0  0  0  0  0  0
   -4.8457    2.4930    1.2183 H   0  0  0  0  0  0  0  0  0  0  0  0
   -0.1926    1.3742   -2.3713 H   0  0  0  0  0  0  0  0  0  0  0  0
   -0.1960    1.7822    1.8742 H   0  0  0  0  0  0  0  0  0  0  0  0
    6.3640    0.3672    0.0023 H   0  0  0  0  0  0  0  0  0  0  0  0
    5.9856    2.0831    0.3270 H   0  0  0  0  0  0  0  0  0  0  0  0
    4.9660    1.1606   -0.7857 H   0  0  0  0  0  0  0  0  0  0  0  0
   -7.3167   -0.9708    0.6009 H   0  0  0  0  0  0  0  0  0  0  0  0
   -6.3660   -2.7055   -0.2848 H   0  0  0  0  0  0  0  0  0  0  0  0
   -8.0457    0.9117    1.4785 H   0  0  0  0  0  0  0  0  0  0  0  0
    1.5287    2.7947    2.7780 H   0  0  0  0  0  0  0  0  0  0  0  0
    3.6224    3.6885    0.5090 H   0  0  0  0  0  0  0  0  0  0  0  0
    2.1039    2.3427   -4.7590 H   0  0  0  0  0  0  0  0  0  0  0  0
    0.5214    2.6106   -4.0401 H   0  0  0  0  0  0  0  0  0  0  0  0
    1.3739    1.0099   -3.8736 H   0  0  0  0  0  0  0  0  0  0  0  0
  1 16  1  0  0  0  0
  1 18  1  0  0  0  0
  2 18  1  0  0  0  0
  2 20  1  0  0  0  0
  3 14  1  0  0  0  0
  3 45  1  0  0  0  0
  4 15  1  0  0  0  0
  4 46  1  0  0  0  0
  5 17  1  0  0  0  0
  5 47  1  0  0  0  0
  6 19  1  0  0  0  0
  6 25  1  0  0  0  0
  7 21  2  0  0  0  0
  7 26  1  0  0  0  0
  8 25  2  0  0  0  0
  9 27  1  0  0  0  0
  9 56  1  0  0  0  0
 10 34  1  0  0  0  0
 10 37  1  0  0  0  0
 11 33  1  0  0  0  0
 11 57  1  0  0  0  0
 12 35  1  0  0  0  0
 12 58  1  0  0  0  0
 13 36  1  0  0  0  0
 13 59  1  0  0  0  0
 14 15  1  0  0  0  0
 14 16  1  0  0  0  0
 14 38  1  0  0  0  0
 15 17  1  0  0  0  0
 15 39  1  0  0  0  0
 16 19  1  0  0  0  0
 16 40  1  0  0  0  0
 17 18  1  0  0  0  0
 17 41  1  0  0  0  0
 18 42  1  0  0  0  0
 19 43  1  0  0  0  0
 19 44  1  0  0  0  0
 20 21  1  0  0  0  0
 20 22  2  0  0  0  0
 21 24  1  0  0  0  0
 22 23  1  0  0  0  0
 22 48  1  0  0  0  0
 23 26  1  0  0  0  0
 23 27  2  0  0  0  0
 24 29  1  0  0  0  0
 24 30  2  0  0  0  0
 25 31  1  0  0  0  0
 26 28  2  0  0  0  0
 27 32  1  0  0  0  0
 28 33  1  0  0  0  0
 28 49  1  0  0  0  0
 29 34  2  0  0  0  0
 29 50  1  0  0  0  0
 30 35  1  0  0  0  0
 30 51  1  0  0  0  0
 31 52  1  0  0  0  0
 31 53  1  0  0  0  0
 31 54  1  0  0  0  0
 32 33  2  0  0  0  0
 32 55  1  0  0  0  0
 34 36  1  0  0  0  0
 35 36  2  0  0  0  0
 37 60  1  0  0  0  0
 37 61  1  0  0  0  0
 37 62  1  0  0  0  0
M  CHG  1   7   1
M  END
> <PUBCHEM_COMPOUND_CID>
44256961

> <PUBCHEM_CONFORMER_RMSD>
1.2

> <PUBCHEM_CONFORMER_DIVERSEORDER>
1
85
123
101
93
63
61
127
112
125
66
55
99
138
58
71
98
3
105
69
109
113
130
28
64
110
48
10
5
70
114
115
121
95
94
139
17
73
65
84
124
116
111
97
59
8
91
39
54
62
119
6
30
49
126
35
53
42
25
43
13
137
72
88
34
96
44
79
23
89
31
107
103
26
136
75
2
27
16
128
36
81
120
118
12
68
15
57
77
29
11
108
32
21
47
80
67
4
135
83
56
90
38
41
92
20
51
33
104
133
9
7
14
122
45
40
117
87
140
22
74
60
24
78
82
102
106
19
18
86
100
131
129
37
134
50
52
132
76
46

> <PUBCHEM_MMFF94_PARTIAL_CHARGES>
49
1 -0.56
10 -0.36
11 -0.53
12 -0.53
13 -0.53
14 0.28
15 0.28
16 0.28
17 0.28
18 0.56
19 0.28
2 -0.36
20 0.09
21 0.85
22 -0.18
23 0.03
24 0.09
25 0.66
26 0.92
27 0.08
28 -0.15
29 -0.15
3 -0.68
30 -0.15
31 0.06
32 -0.15
33 0.08
34 0.08
35 0.08
36 0.08
37 0.28
4 -0.68
45 0.4
46 0.4
47 0.4
48 0.15
49 0.15
5 -0.68
50 0.15
51 0.15
55 0.15
56 0.45
57 0.45
58 0.45
59 0.45
6 -0.43
7 -0.87
8 -0.57
9 -0.53

> <PUBCHEM_EFFECTIVE_ROTOR_COUNT>
8.2

> <PUBCHEM_PHARMACOPHORE_FEATURES>
18
1 1 acceptor
1 10 acceptor
1 11 donor
1 12 donor
1 13 donor
1 2 acceptor
1 3 acceptor
1 3 donor
1 4 acceptor
1 4 donor
1 5 acceptor
1 5 donor
1 8 acceptor
1 9 donor
6 1 14 15 16 17 18 rings
6 23 26 27 28 32 33 rings
6 24 29 30 34 35 36 rings
6 7 20 21 22 23 26 rings

> <PUBCHEM_HEAVY_ATOM_COUNT>
37

> <PUBCHEM_ATOM_DEF_STEREO_COUNT>
2

> <PUBCHEM_ATOM_UDEF_STEREO_COUNT>
3

> <PUBCHEM_BOND_DEF_STEREO_COUNT>
0

> <PUBCHEM_BOND_UDEF_STEREO_COUNT>
0

> <PUBCHEM_ISOTOPIC_ATOM_COUNT>
0

> <PUBCHEM_COMPONENT_COUNT>
1

> <PUBCHEM_CACTVS_TAUTO_COUNT>
171

> <PUBCHEM_CONFORMER_ID>
02A34EC100000001

> <PUBCHEM_MMFF94_ENERGY>
119.3106

> <PUBCHEM_FEATURE_SELFOVERLAP>
91.451

> <PUBCHEM_SHAPE_FINGERPRINT>
10674148 151 18272658995914041572
10721379 63 17971502669948378853
11513181 2 17917986157464187823
11578080 2 17532355488210166117
12156800 1 15694095114735653114
12422481 6 18261658303586894520
13140716 1 18196363951700343187
133893 2 18114197327740171157
13692114 37 18196368345911414187
14028597 1 17846512447271360313
14790565 3 18268989967443266936
14840074 17 18040710420500509444
14863182 85 18411985762851243052
14955137 171 18342459235832323920
15297060 5 18130505336070052570
15420108 30 17988630926347021087
15968369 153 17337299131487429507
1813 80 18043256738779262591
1979834 28 18340481184243676186
20600515 1 17763466119255987653
20642791 178 18043256931878483868
20739085 24 18338794511969169946
21421861 104 18339370682058593225
23366157 5 18260559926457810223
23559900 14 18128836161555412719
27425 322 16485822870530749960
3380486 145 17906696307766239718
3411729 13 18413675712049191401
376196 1 16986309649793302825
4144715 1 18337118848428183809
460360 51 18265905661956570725
513532 50 17346609551322391477
5265222 85 18196380432054854308
57527452 28 18335145298039445544

> <PUBCHEM_SHAPE_MULTIPOLES>
685.14
12.14
4.9
2.24
20.4
3.59
-1.48
-1.45
6.55
-5.95
-1.09
-2.44
-1.37
-1.42

> <PUBCHEM_SHAPE_SELFOVERLAP>
1491.284

> <PUBCHEM_SHAPE_VOLUME>
368.8

> <PUBCHEM_COORDINATE_TYPE>
2
5
10

$$$$
