44259243
  -OEChem-03052615053D

 73 77  0     1  0  0  0  0  0999 V2000
    4.9622    0.4309    0.7279 O   0  0  0  0  0  0  0  0  0  0  0  0
   -3.9946    0.0415    0.7955 O   0  0  0  0  0  0  0  0  0  0  0  0
    4.5573    0.4881   -1.5833 O   0  0  0  0  0  0  0  0  0  0  0  0
   -3.1593    1.1660   -1.0895 O   0  0  0  0  0  0  0  0  0  0  0  0
    8.5410   -1.5751    0.1725 O   0  0  0  0  0  0  0  0  0  0  0  0
    7.2690   -1.5742    2.7666 O   0  0  0  0  0  0  0  0  0  0  0  0
   -6.3164    3.3106    1.8703 O   0  0  0  0  0  0  0  0  0  0  0  0
   -6.7093    0.5664    1.7587 O   0  0  0  0  0  0  0  0  0  0  0  0
    7.2513    0.6451   -0.9170 O   0  0  0  0  0  0  0  0  0  0  0  0
   -5.7810    1.8919   -0.4958 O   0  0  0  0  0  0  0  0  0  0  0  0
    3.7887    0.8172    3.1722 O   0  0  0  0  0  0  0  0  0  0  0  0
   -0.0154   -0.7490   -1.2807 O   0  0  0  0  0  0  0  0  0  0  0  0
   -1.2126    3.1457   -1.2497 O   0  0  0  0  0  0  0  0  0  0  0  0
    1.2788    3.9191   -1.4219 O   0  0  0  0  0  0  0  0  0  0  0  0
   -2.8179   -4.4792    1.0109 O   0  0  0  0  0  0  0  0  0  0  0  0
   -4.7607   -4.8755   -0.9374 O   0  0  0  0  0  0  0  0  0  0  0  0
    7.1392   -1.4041    0.3631 C   0  0  1  0  0  0  0  0  0  0  0  0
    6.8953   -0.7031    1.7021 C   0  0  1  0  0  0  0  0  0  0  0  0
   -5.1912    2.4452    1.7840 C   0  0  1  0  0  0  0  0  0  0  0  0
   -5.5331    1.0773    2.3860 C   0  0  2  0  0  0  0  0  0  0  0  0
    6.5476   -0.5944   -0.7905 C   0  0  1  0  0  0  0  0  0  0  0  0
    5.4130   -0.3328    1.8514 C   0  0  1  0  0  0  0  0  0  0  0  0
   -4.7041    2.3220    0.3390 C   0  0  1  0  0  0  0  0  0  0  0  0
   -4.3557    0.1115    2.1830 C   0  0  1  0  0  0  0  0  0  0  0  0
    5.0788   -0.2829   -0.5051 C   0  0  1  0  0  0  0  0  0  0  0  0
   -3.5667    1.3004    0.2687 C   0  0  1  0  0  0  0  0  0  0  0  0
    5.1677    0.5036    3.1031 C   0  0  0  0  0  0  0  0  0  0  0  0
   -4.6627   -1.3084    2.6438 C   0  0  0  0  0  0  0  0  0  0  0  0
   -1.8201    0.8576   -1.1915 C   0  0  0  0  0  0  0  0  0  0  0  0
    3.2485    0.8543   -1.5062 C   0  0  0  0  0  0  0  0  0  0  0  0
    0.5705    1.6055   -1.3484 C   0  0  0  0  0  0  0  0  0  0  0  0
    0.9146    0.2557   -1.3525 C   0  0  0  0  0  0  0  0  0  0  0  0
   -0.8501    1.9769   -1.2628 C   0  0  0  0  0  0  0  0  0  0  0  0
   -1.3562   -0.4053   -1.2121 C   0  0  0  0  0  0  0  0  0  0  0  0
    2.2552   -0.1224   -1.4315 C   0  0  0  0  0  0  0  0  0  0  0  0
    2.9024    2.2061   -1.5017 C   0  0  0  0  0  0  0  0  0  0  0  0
    1.5622    2.5867   -1.4227 C   0  0  0  0  0  0  0  0  0  0  0  0
   -2.2468   -1.5771   -1.1375 C   0  0  0  0  0  0  0  0  0  0  0  0
   -2.1142   -2.4876   -0.0891 C   0  0  0  0  0  0  0  0  0  0  0  0
   -3.2220   -1.7760   -2.1148 C   0  0  0  0  0  0  0  0  0  0  0  0
   -2.9568   -3.5971   -0.0179 C   0  0  0  0  0  0  0  0  0  0  0  0
   -4.0644   -2.8855   -2.0438 C   0  0  0  0  0  0  0  0  0  0  0  0
   -3.9319   -3.7960   -0.9954 C   0  0  0  0  0  0  0  0  0  0  0  0
    6.6951   -2.4070    0.3850 H   0  0  0  0  0  0  0  0  0  0  0  0
    7.5312    0.1866    1.7781 H   0  0  0  0  0  0  0  0  0  0  0  0
   -4.3882    2.8997    2.3782 H   0  0  0  0  0  0  0  0  0  0  0  0
   -5.7655    1.1913    3.4512 H   0  0  0  0  0  0  0  0  0  0  0  0
    6.6693   -1.1175   -1.7445 H   0  0  0  0  0  0  0  0  0  0  0  0
    4.7906   -1.2353    1.9220 H   0  0  0  0  0  0  0  0  0  0  0  0
   -4.3800    3.2930   -0.0515 H   0  0  0  0  0  0  0  0  0  0  0  0
   -3.4860    0.4723    2.7475 H   0  0  0  0  0  0  0  0  0  0  0  0
    4.5264   -1.2286   -0.4305 H   0  0  0  0  0  0  0  0  0  0  0  0
   -2.7314    1.6713    0.8818 H   0  0  0  0  0  0  0  0  0  0  0  0
    5.7216    1.4471    3.0554 H   0  0  0  0  0  0  0  0  0  0  0  0
    5.4523   -0.0378    4.0104 H   0  0  0  0  0  0  0  0  0  0  0  0
   -5.4035   -1.7909    1.9974 H   0  0  0  0  0  0  0  0  0  0  0  0
   -5.0237   -1.3226    3.6764 H   0  0  0  0  0  0  0  0  0  0  0  0
   -3.7586   -1.9240    2.5895 H   0  0  0  0  0  0  0  0  0  0  0  0
    8.6678   -2.0111   -0.6874 H   0  0  0  0  0  0  0  0  0  0  0  0
    6.7093   -2.3679    2.7164 H   0  0  0  0  0  0  0  0  0  0  0  0
   -6.5788    3.3592    2.8053 H   0  0  0  0  0  0  0  0  0  0  0  0
   -7.0143   -0.1966    2.2778 H   0  0  0  0  0  0  0  0  0  0  0  0
    7.0039    1.2155   -0.1698 H   0  0  0  0  0  0  0  0  0  0  0  0
   -6.5033    2.5345   -0.3909 H   0  0  0  0  0  0  0  0  0  0  0  0
    2.5118   -1.1783   -1.4513 H   0  0  0  0  0  0  0  0  0  0  0  0
    3.6559    1.3533    3.9725 H   0  0  0  0  0  0  0  0  0  0  0  0
    3.6808    2.9632   -1.5593 H   0  0  0  0  0  0  0  0  0  0  0  0
   -1.3574   -2.3326    0.6770 H   0  0  0  0  0  0  0  0  0  0  0  0
   -3.3371   -1.0820   -2.9439 H   0  0  0  0  0  0  0  0  0  0  0  0
    0.3219    4.0638   -1.3663 H   0  0  0  0  0  0  0  0  0  0  0  0
   -4.8189   -3.0291   -2.8125 H   0  0  0  0  0  0  0  0  0  0  0  0
   -2.0985   -4.1780    1.5920 H   0  0  0  0  0  0  0  0  0  0  0  0
   -5.3700   -4.8481   -1.6951 H   0  0  0  0  0  0  0  0  0  0  0  0
  1 22  1  0  0  0  0
  1 25  1  0  0  0  0
  2 24  1  0  0  0  0
  2 26  1  0  0  0  0
  3 25  1  0  0  0  0
  3 30  1  0  0  0  0
  4 26  1  0  0  0  0
  4 29  1  0  0  0  0
  5 17  1  0  0  0  0
  5 59  1  0  0  0  0
  6 18  1  0  0  0  0
  6 60  1  0  0  0  0
  7 19  1  0  0  0  0
  7 61  1  0  0  0  0
  8 20  1  0  0  0  0
  8 62  1  0  0  0  0
  9 21  1  0  0  0  0
  9 63  1  0  0  0  0
 10 23  1  0  0  0  0
 10 64  1  0  0  0  0
 11 27  1  0  0  0  0
 11 66  1  0  0  0  0
 12 32  1  0  0  0  0
 12 34  1  0  0  0  0
 13 33  2  0  0  0  0
 14 37  1  0  0  0  0
 14 70  1  0  0  0  0
 15 41  1  0  0  0  0
 15 72  1  0  0  0  0
 16 43  1  0  0  0  0
 16 73  1  0  0  0  0
 17 18  1  0  0  0  0
 17 21  1  0  0  0  0
 17 44  1  0  0  0  0
 18 22  1  0  0  0  0
 18 45  1  0  0  0  0
 19 20  1  0  0  0  0
 19 23  1  0  0  0  0
 19 46  1  0  0  0  0
 20 24  1  0  0  0  0
 20 47  1  0  0  0  0
 21 25  1  0  0  0  0
 21 48  1  0  0  0  0
 22 27  1  0  0  0  0
 22 49  1  0  0  0  0
 23 26  1  0  0  0  0
 23 50  1  0  0  0  0
 24 28  1  0  0  0  0
 24 51  1  0  0  0  0
 25 52  1  0  0  0  0
 26 53  1  0  0  0  0
 27 54  1  0  0  0  0
 27 55  1  0  0  0  0
 28 56  1  0  0  0  0
 28 57  1  0  0  0  0
 28 58  1  0  0  0  0
 29 33  1  0  0  0  0
 29 34  2  0  0  0  0
 30 35  1  0  0  0  0
 30 36  2  0  0  0  0
 31 32  1  0  0  0  0
 31 33  1  0  0  0  0
 31 37  2  0  0  0  0
 32 35  2  0  0  0  0
 34 38  1  0  0  0  0
 35 65  1  0  0  0  0
 36 37  1  0  0  0  0
 36 67  1  0  0  0  0
 38 39  2  0  0  0  0
 38 40  1  0  0  0  0
 39 41  1  0  0  0  0
 39 68  1  0  0  0  0
 40 42  2  0  0  0  0
 40 69  1  0  0  0  0
 41 43  2  0  0  0  0
 42 43  1  0  0  0  0
 42 71  1  0  0  0  0
M  END
> <PUBCHEM_COMPOUND_CID>
44259243

> <PUBCHEM_CONFORMER_RMSD>
1.4

> <PUBCHEM_CONFORMER_DIVERSEORDER>
1
12
22
78
14
109
83
49
112
85
73
87
13
41
105
93
95
67
43
84
100
19
81
26
44
108
59
24
107
47
5
89
58
53
98
40
106
39
99
36
25
68
20
46
30
17
72
18
82
23
97
79
31
15
38
21
50
7
96
94
34
71
63
3
102
32
42
8
51
92
61
6
75
16
86
110
104
11
111
76
37
103
9
77
48
60
55
52
57
88
45
27
101
91
56
4
69
2
62
54
90
70
33
28
35
80
74
29
10
66
64
65

> <PUBCHEM_MMFF94_PARTIAL_CHARGES>
57
1 -0.56
10 -0.68
11 -0.68
12 -0.16
13 -0.57
14 -0.53
15 -0.53
16 -0.53
17 0.28
18 0.28
19 0.28
2 -0.56
20 0.28
21 0.28
22 0.28
23 0.28
24 0.28
25 0.56
26 0.56
27 0.28
29 0.09
3 -0.36
30 0.08
31 0.09
32 0.08
33 0.47
34 0.05
35 -0.15
36 -0.15
37 0.08
38 0.03
39 -0.15
4 -0.36
40 -0.15
41 0.08
42 -0.15
43 0.08
5 -0.68
59 0.4
6 -0.68
60 0.4
61 0.4
62 0.4
63 0.4
64 0.4
65 0.15
66 0.4
67 0.15
68 0.15
69 0.15
7 -0.68
70 0.45
71 0.15
72 0.45
73 0.45
8 -0.68
9 -0.68

> <PUBCHEM_EFFECTIVE_ROTOR_COUNT>
8.4

> <PUBCHEM_PHARMACOPHORE_FEATURES>
28
1 1 acceptor
1 10 acceptor
1 10 donor
1 11 acceptor
1 11 donor
1 12 acceptor
1 13 acceptor
1 14 donor
1 15 donor
1 16 donor
1 2 acceptor
1 3 acceptor
1 4 acceptor
1 5 acceptor
1 5 donor
1 6 acceptor
1 6 donor
1 7 acceptor
1 7 donor
1 8 acceptor
1 8 donor
1 9 acceptor
1 9 donor
6 1 17 18 21 22 25 rings
6 12 29 31 32 33 34 rings
6 2 19 20 23 24 26 rings
6 30 31 32 35 36 37 rings
6 38 39 40 41 42 43 rings

> <PUBCHEM_HEAVY_ATOM_COUNT>
43

> <PUBCHEM_ATOM_DEF_STEREO_COUNT>
6

> <PUBCHEM_ATOM_UDEF_STEREO_COUNT>
4

> <PUBCHEM_BOND_DEF_STEREO_COUNT>
0

> <PUBCHEM_BOND_UDEF_STEREO_COUNT>
0

> <PUBCHEM_ISOTOPIC_ATOM_COUNT>
0

> <PUBCHEM_COMPONENT_COUNT>
1

> <PUBCHEM_CACTVS_TAUTO_COUNT>
68

> <PUBCHEM_CONFORMER_ID>
02A357AB00000001

> <PUBCHEM_MMFF94_ENERGY>
145.5944

> <PUBCHEM_FEATURE_SELFOVERLAP>
142.311

> <PUBCHEM_SHAPE_FINGERPRINT>
10074138 170 18343302591690346839
10305334 12 18410015420771869231
10319926 262 18060137665343782334
10677351 27 17530971246707186530
10928967 22 17677033712381544466
117089 54 14347521231308188657
12107183 9 18336840748346682309
12128747 34 17489586736357641970
12422481 6 18341338820567037566
12655364 131 18267302032991408915
131258 38 16238746343045546019
13383661 66 15869999773678071011
13540713 5 18264501761042138957
13690498 29 12468642746170859111
14118638 360 18124315162677851076
14705955 166 17416404264774260056
14866123 147 18408610288029757111
15320294 125 18187374177296786045
15351334 14 11458693980976022888
15352257 5 15719400520809630680
15392192 29 18187938270418552206
15705408 1 11107050457878830019
18470217 77 17846204614333288241
19246450 95 18191588553911203377
19301679 30 17983317081709596367
19303781 99 16807835561759386578
208703 8 17895762918558563179
21033648 29 18059306344670808577
21792965 215 15984253184349159335
21814621 53 17561363976944159982
23522609 53 18044686250040870212
312425 54 18201431451112466082
3383291 50 18413114953083160831
3504750 166 18201435951927625999
397638 26 18130515128194528097
44880168 125 18336543794914530774
474113 269 17749677402453260107
484985 159 17895473734954552823
5104073 3 18342176730306484204
563151 248 18333456425876105499
563151 74 16486981652564864134
6009941 240 17775563122605434066
6058803 2 18120108422610945949
6691757 9 18201720631065080621
9896288 288 18046064856938022700

> <PUBCHEM_SHAPE_MULTIPOLES>
791.01
20.04
4.55
2.98
29.85
3.28
-2.28
3.51
-13.14
-8.98
1.15
0.7
-0.48
-3.96

> <PUBCHEM_SHAPE_SELFOVERLAP>
1726.989

> <PUBCHEM_SHAPE_VOLUME>
421.7

> <PUBCHEM_COORDINATE_TYPE>
2
5
10

$$$$
