44257896
  -OEChem-03052615073D

 53 56  0     1  0  0  0  0  0999 V2000
   -3.2524   -1.1441   -0.8681 O   0  0  0  0  0  0  0  0  0  0  0  0
   -3.3053    1.1463   -0.3624 O   0  0  0  0  0  0  0  0  0  0  0  0
   -4.7003   -1.9375    2.3693 O   0  0  0  0  0  0  0  0  0  0  0  0
   -5.6741   -2.7758   -1.0382 O   0  0  0  0  0  0  0  0  0  0  0  0
   -5.8306    0.0633   -0.4620 O   0  0  0  0  0  0  0  0  0  0  0  0
    1.3901    0.4334   -0.1339 O   0  0  0  0  0  0  0  0  0  0  0  0
   -0.4461    4.9091    0.1696 O   0  0  0  0  0  0  0  0  0  0  0  0
    2.1293    4.4187    0.2787 O   0  0  0  0  0  0  0  0  0  0  0  0
    6.6605   -3.0511   -0.1419 O   0  0  0  0  0  0  0  0  0  0  0  0
   -5.2928   -1.7059    1.0935 C   0  0  2  0  0  0  0  0  0  0  0  0
   -4.8051   -2.7652    0.0940 C   0  0  2  0  0  0  0  0  0  0  0  0
   -4.9675   -0.2833    0.6227 C   0  0  1  0  0  0  0  0  0  0  0  0
   -3.3676   -2.4851   -0.3761 C   0  0  1  0  0  0  0  0  0  0  0  0
   -3.5176   -0.1701    0.1414 C   0  0  1  0  0  0  0  0  0  0  0  0
   -2.9287   -3.4200   -1.4982 C   0  0  0  0  0  0  0  0  0  0  0  0
   -2.0413    1.6567   -0.2351 C   0  0  0  0  0  0  0  0  0  0  0  0
   -0.9398    0.8005   -0.2462 C   0  0  0  0  0  0  0  0  0  0  0  0
   -1.8573    3.0330   -0.0943 C   0  0  0  0  0  0  0  0  0  0  0  0
    0.3469    1.3241   -0.1160 C   0  0  0  0  0  0  0  0  0  0  0  0
    0.5287    2.6990    0.0240 C   0  0  0  0  0  0  0  0  0  0  0  0
   -0.5716    3.5595    0.0356 C   0  0  0  0  0  0  0  0  0  0  0  0
    1.8961    3.2239    0.1573 C   0  0  0  0  0  0  0  0  0  0  0  0
    2.6798    0.9239    0.0021 C   0  0  0  0  0  0  0  0  0  0  0  0
    2.9834    2.2248    0.1360 C   0  0  0  0  0  0  0  0  0  0  0  0
    3.7252   -0.1184   -0.0347 C   0  0  0  0  0  0  0  0  0  0  0  0
    4.7012   -0.0925   -1.0309 C   0  0  0  0  0  0  0  0  0  0  0  0
    3.7360   -1.1297    0.9260 C   0  0  0  0  0  0  0  0  0  0  0  0
    5.6877   -1.0778   -1.0668 C   0  0  0  0  0  0  0  0  0  0  0  0
    4.7225   -2.1152    0.8902 C   0  0  0  0  0  0  0  0  0  0  0  0
    5.6983   -2.0892   -0.1062 C   0  0  0  0  0  0  0  0  0  0  0  0
    6.6123   -4.0554    0.8706 C   0  0  0  0  0  0  0  0  0  0  0  0
   -6.3787   -1.7974    1.2184 H   0  0  0  0  0  0  0  0  0  0  0  0
   -4.8414   -3.7639    0.5449 H   0  0  0  0  0  0  0  0  0  0  0  0
   -5.1403    0.4462    1.4226 H   0  0  0  0  0  0  0  0  0  0  0  0
   -2.6726   -2.6071    0.4646 H   0  0  0  0  0  0  0  0  0  0  0  0
   -2.8716   -0.3551    1.0125 H   0  0  0  0  0  0  0  0  0  0  0  0
   -3.5150   -3.2591   -2.4092 H   0  0  0  0  0  0  0  0  0  0  0  0
   -3.0167   -4.4687   -1.1990 H   0  0  0  0  0  0  0  0  0  0  0  0
   -1.8848   -3.2217   -1.7655 H   0  0  0  0  0  0  0  0  0  0  0  0
   -4.9520   -2.8332    2.6518 H   0  0  0  0  0  0  0  0  0  0  0  0
   -6.5659   -2.9987   -0.7214 H   0  0  0  0  0  0  0  0  0  0  0  0
   -6.7449    0.0202   -0.1337 H   0  0  0  0  0  0  0  0  0  0  0  0
   -1.0317   -0.2725   -0.3748 H   0  0  0  0  0  0  0  0  0  0  0  0
   -2.7199    3.6951   -0.0863 H   0  0  0  0  0  0  0  0  0  0  0  0
    4.0012    2.5851    0.2367 H   0  0  0  0  0  0  0  0  0  0  0  0
    0.4871    5.1572    0.2548 H   0  0  0  0  0  0  0  0  0  0  0  0
    4.7067    0.6846   -1.7915 H   0  0  0  0  0  0  0  0  0  0  0  0
    2.9828   -1.1623    1.7098 H   0  0  0  0  0  0  0  0  0  0  0  0
    6.4446   -1.0533   -1.8461 H   0  0  0  0  0  0  0  0  0  0  0  0
    4.6720   -2.8709    1.6666 H   0  0  0  0  0  0  0  0  0  0  0  0
    7.4501   -4.7369    0.6901 H   0  0  0  0  0  0  0  0  0  0  0  0
    5.6956   -4.6510    0.8032 H   0  0  0  0  0  0  0  0  0  0  0  0
    6.7572   -3.6279    1.8686 H   0  0  0  0  0  0  0  0  0  0  0  0
  1 13  1  0  0  0  0
  1 14  1  0  0  0  0
  2 14  1  0  0  0  0
  2 16  1  0  0  0  0
  3 10  1  0  0  0  0
  3 40  1  0  0  0  0
  4 11  1  0  0  0  0
  4 41  1  0  0  0  0
  5 12  1  0  0  0  0
  5 42  1  0  0  0  0
  6 19  1  0  0  0  0
  6 23  1  0  0  0  0
  7 21  1  0  0  0  0
  7 46  1  0  0  0  0
  8 22  2  0  0  0  0
  9 30  1  0  0  0  0
  9 31  1  0  0  0  0
 10 11  1  0  0  0  0
 10 12  1  0  0  0  0
 10 32  1  0  0  0  0
 11 13  1  0  0  0  0
 11 33  1  0  0  0  0
 12 14  1  0  0  0  0
 12 34  1  0  0  0  0
 13 15  1  0  0  0  0
 13 35  1  0  0  0  0
 14 36  1  0  0  0  0
 15 37  1  0  0  0  0
 15 38  1  0  0  0  0
 15 39  1  0  0  0  0
 16 17  1  0  0  0  0
 16 18  2  0  0  0  0
 17 19  2  0  0  0  0
 17 43  1  0  0  0  0
 18 21  1  0  0  0  0
 18 44  1  0  0  0  0
 19 20  1  0  0  0  0
 20 21  2  0  0  0  0
 20 22  1  0  0  0  0
 22 24  1  0  0  0  0
 23 24  2  0  0  0  0
 23 25  1  0  0  0  0
 24 45  1  0  0  0  0
 25 26  2  0  0  0  0
 25 27  1  0  0  0  0
 26 28  1  0  0  0  0
 26 47  1  0  0  0  0
 27 29  2  0  0  0  0
 27 48  1  0  0  0  0
 28 30  2  0  0  0  0
 28 49  1  0  0  0  0
 29 30  1  0  0  0  0
 29 50  1  0  0  0  0
 31 51  1  0  0  0  0
 31 52  1  0  0  0  0
 31 53  1  0  0  0  0
M  END
> <PUBCHEM_COMPOUND_CID>
44257896

> <PUBCHEM_CONFORMER_RMSD>
0.8

> <PUBCHEM_CONFORMER_DIVERSEORDER>
2
61
71
81
52
77
34
31
82
54
68
92
60
40
80
51
100
98
69
95
11
72
96
74
70
94
99
42
97
58
89
75
19
90
33
62
46
56
93
78
38
87
44
13
9
50
43
57
86
32
20
37
12
48
16
79
17
83
59
3
64
63
36
18
8
14
84
66
25
7
6
23
1
76
53
5
15
22
85
88
10
47
55
21
29
45
24
91
30
67
27
73
49
41
28
26
65
39
4
35

> <PUBCHEM_MMFF94_PARTIAL_CHARGES>
41
1 -0.56
10 0.28
11 0.28
12 0.28
13 0.28
14 0.56
16 0.08
17 -0.15
18 -0.15
19 0.08
2 -0.36
20 0.09
21 0.08
22 0.47
23 0.05
24 -0.14
25 0.03
26 -0.15
27 -0.15
28 -0.15
29 -0.15
3 -0.68
30 0.08
31 0.28
4 -0.68
40 0.4
41 0.4
42 0.4
43 0.15
44 0.15
45 0.15
46 0.45
47 0.15
48 0.15
49 0.15
5 -0.68
50 0.15
6 -0.16
7 -0.53
8 -0.57
9 -0.36

> <PUBCHEM_EFFECTIVE_ROTOR_COUNT>
5.2

> <PUBCHEM_PHARMACOPHORE_FEATURES>
16
1 1 acceptor
1 2 acceptor
1 3 acceptor
1 3 donor
1 4 acceptor
1 4 donor
1 5 acceptor
1 5 donor
1 6 acceptor
1 7 donor
1 8 acceptor
1 9 acceptor
6 1 10 11 12 13 14 rings
6 16 17 18 19 20 21 rings
6 25 26 27 28 29 30 rings
6 6 19 20 22 23 24 rings

> <PUBCHEM_HEAVY_ATOM_COUNT>
31

> <PUBCHEM_ATOM_DEF_STEREO_COUNT>
3

> <PUBCHEM_ATOM_UDEF_STEREO_COUNT>
2

> <PUBCHEM_BOND_DEF_STEREO_COUNT>
0

> <PUBCHEM_BOND_UDEF_STEREO_COUNT>
0

> <PUBCHEM_ISOTOPIC_ATOM_COUNT>
0

> <PUBCHEM_COMPONENT_COUNT>
1

> <PUBCHEM_CACTVS_TAUTO_COUNT>
5

> <PUBCHEM_CONFORMER_ID>
02A3526800000002

> <PUBCHEM_MMFF94_ENERGY>
112.7768

> <PUBCHEM_FEATURE_SELFOVERLAP>
81.287

> <PUBCHEM_SHAPE_FINGERPRINT>
10050765 1 18410856530177516000
10928967 22 18338807808971699031
11135609 99 18264766572495338678
11135926 11 18122898995891117860
117089 54 18261967361071044579
11763715 3 18190767304783084028
11809386 21 18117839902599540928
11963148 33 18267297811143785926
11991303 11 17751918026313830157
12107183 9 18271259274329524097
12293681 25 17752780287630940008
12422481 6 17417818326567731238
12760667 363 18412258403006385973
12788726 201 18262800657829712842
13540713 4 18338217324020515780
1361 4 18122344576544800534
1361 87 17749679583516080619
13690498 29 18187085009880589516
13911852 28 18411417345230465109
13955234 65 18126006211456310536
14117953 113 18271243816557310695
14279260 333 17970062241530135954
14420673 8 18408890607749812227
14790565 3 17185315881395890565
14844126 61 18193838145873756824
14866123 147 18267871566992694753
14950920 106 17632861936072682073
15042514 8 18339361851252696997
15250474 111 17972031436737385698
15320294 125 17611183759067181832
15320467 1 17762336216392957558
15803439 3 16741118187257956092
16992752 21 18339933637013682126
17138139 8 17895193256356962538
17492 89 18410852195958622928
17686467 74 18339070490574197410
19246450 95 18054810390296150921
19841028 212 18195806508718727243
20775438 99 17976808006794797098
20775530 9 18334290993824592436
21796203 349 18048917157366308899
22950370 63 18410579508511191844
23522609 53 18050041914986728924
23559900 14 18410847793933902553
23569914 152 18123434295503997047
32027 91 18341040883012543909
3421961 26 18340206413621808528
3737641 26 18265336286051534245
437795 163 18334861598570414470
439807 62 18187370891499091578
4409770 3 18118961395918242389
4461854 278 16461938445348593266
44880168 125 17417814989943080246
463206 1 18335142028620183522
5104073 3 18130787811753316960
5486654 36 18338524044941008537
56633871 153 18343586269853742919
6058803 2 17769946993726341101
613672 6 18194655169134196344
6201320 77 17315390031354365971
6700243 42 17770813163917943748
70251023 43 18335706078380384984
7970288 3 18338233761350370282
86090 222 17242171481854772835
8863177 126 18413669115237855098

> <PUBCHEM_SHAPE_MULTIPOLES>
585.14
15.79
6.03
1.1
7.01
3.25
0.21
-22.16
1.06
1.78
0.27
-0.65
-0.96
-0.86

> <PUBCHEM_SHAPE_SELFOVERLAP>
1279.753

> <PUBCHEM_SHAPE_VOLUME>
314.7

> <PUBCHEM_COORDINATE_TYPE>
2
5
10

$$$$
