44258316
  -OEChem-03052615073D

 54 57  0     1  0  0  0  0  0999 V2000
    3.6891   -0.7157   -0.6661 O   0  0  0  0  0  0  0  0  0  0  0  0
    3.3998   -0.0575    2.0947 O   0  0  0  0  0  0  0  0  0  0  0  0
    5.6922    1.5493    2.1870 O   0  0  0  0  0  0  0  0  0  0  0  0
    7.1522    0.2965    0.0262 O   0  0  0  0  0  0  0  0  0  0  0  0
    4.9401   -2.2011   -2.5948 O   0  0  0  0  0  0  0  0  0  0  0  0
    1.9129   -2.0536    0.4851 O   0  0  0  0  0  0  0  0  0  0  0  0
    1.1214    2.4835   -0.7638 O   0  0  0  0  0  0  0  0  0  0  0  0
   -2.5601   -0.5322    0.1177 O   0  0  0  0  0  0  0  0  0  0  0  0
   -1.3717    3.2213   -0.9306 O   0  0  0  0  0  0  0  0  0  0  0  0
   -8.8473   -1.1246    0.3714 O   0  0  0  0  0  0  0  0  0  0  0  0
    3.6052    0.9541    1.1051 C   0  0  1  0  0  0  0  0  0  0  0  0
    5.1070    1.1979    0.9362 C   0  0  2  0  0  0  0  0  0  0  0  0
    3.0150    0.4731   -0.2299 C   0  0  2  0  0  0  0  0  0  0  0  0
    5.8045   -0.0342    0.3511 C   0  0  1  0  0  0  0  0  0  0  0  0
    5.0822   -0.5058   -0.9179 C   0  0  1  0  0  0  0  0  0  0  0  0
    1.5216    0.2277   -0.1432 C   0  0  0  0  0  0  0  0  0  0  0  0
    5.6569   -1.8210   -1.4345 C   0  0  0  0  0  0  0  0  0  0  0  0
    0.6252    1.2611   -0.4187 C   0  0  0  0  0  0  0  0  0  0  0  0
    1.0480   -1.0358    0.2133 C   0  0  0  0  0  0  0  0  0  0  0  0
   -0.7483    1.0210   -0.3351 C   0  0  0  0  0  0  0  0  0  0  0  0
   -0.3246   -1.2715    0.2956 C   0  0  0  0  0  0  0  0  0  0  0  0
   -1.2231   -0.2404    0.0203 C   0  0  0  0  0  0  0  0  0  0  0  0
   -1.7177    2.0904   -0.6180 C   0  0  0  0  0  0  0  0  0  0  0  0
   -3.4767    0.4708   -0.1586 C   0  0  0  0  0  0  0  0  0  0  0  0
   -3.1440    1.7249   -0.5031 C   0  0  0  0  0  0  0  0  0  0  0  0
    1.3415   -3.3108    0.8409 C   0  0  0  0  0  0  0  0  0  0  0  0
   -4.8857    0.0508   -0.0198 C   0  0  0  0  0  0  0  0  0  0  0  0
   -5.7499    0.1369   -1.1113 C   0  0  0  0  0  0  0  0  0  0  0  0
   -5.3527   -0.4310    1.2032 C   0  0  0  0  0  0  0  0  0  0  0  0
   -7.0810   -0.2583   -0.9800 C   0  0  0  0  0  0  0  0  0  0  0  0
   -6.6838   -0.8262    1.3347 C   0  0  0  0  0  0  0  0  0  0  0  0
   -7.5480   -0.7398    0.2431 C   0  0  0  0  0  0  0  0  0  0  0  0
    3.1089    1.8605    1.4684 H   0  0  0  0  0  0  0  0  0  0  0  0
    5.2670    2.0537    0.2679 H   0  0  0  0  0  0  0  0  0  0  0  0
    3.1936    1.2306   -1.0047 H   0  0  0  0  0  0  0  0  0  0  0  0
    5.8422   -0.8313    1.1024 H   0  0  0  0  0  0  0  0  0  0  0  0
    5.1757    0.2395   -1.7195 H   0  0  0  0  0  0  0  0  0  0  0  0
    5.5344   -2.6168   -0.6922 H   0  0  0  0  0  0  0  0  0  0  0  0
    6.7164   -1.7239   -1.6899 H   0  0  0  0  0  0  0  0  0  0  0  0
    3.6891   -0.9096    1.7274 H   0  0  0  0  0  0  0  0  0  0  0  0
    5.2187    2.3294    2.5229 H   0  0  0  0  0  0  0  0  0  0  0  0
    7.1361    1.0020   -0.6429 H   0  0  0  0  0  0  0  0  0  0  0  0
   -0.7571   -2.2288    0.5667 H   0  0  0  0  0  0  0  0  0  0  0  0
    5.3182   -3.0422   -2.9031 H   0  0  0  0  0  0  0  0  0  0  0  0
    0.4038    3.1122   -0.9331 H   0  0  0  0  0  0  0  0  0  0  0  0
   -3.8795    2.4963   -0.7025 H   0  0  0  0  0  0  0  0  0  0  0  0
    2.1724   -4.0007    1.0220 H   0  0  0  0  0  0  0  0  0  0  0  0
    0.7520   -3.7340    0.0205 H   0  0  0  0  0  0  0  0  0  0  0  0
    0.7741   -3.2470    1.7757 H   0  0  0  0  0  0  0  0  0  0  0  0
   -5.4035    0.5051   -2.0740 H   0  0  0  0  0  0  0  0  0  0  0  0
   -4.6928   -0.5023    2.0643 H   0  0  0  0  0  0  0  0  0  0  0  0
   -7.7493   -0.1896   -1.8340 H   0  0  0  0  0  0  0  0  0  0  0  0
   -7.0356   -1.1989    2.2930 H   0  0  0  0  0  0  0  0  0  0  0  0
   -8.9968   -1.4302    1.2825 H   0  0  0  0  0  0  0  0  0  0  0  0
  1 13  1  0  0  0  0
  1 15  1  0  0  0  0
  2 11  1  0  0  0  0
  2 40  1  0  0  0  0
  3 12  1  0  0  0  0
  3 41  1  0  0  0  0
  4 14  1  0  0  0  0
  4 42  1  0  0  0  0
  5 17  1  0  0  0  0
  5 44  1  0  0  0  0
  6 19  1  0  0  0  0
  6 26  1  0  0  0  0
  7 18  1  0  0  0  0
  7 45  1  0  0  0  0
  8 22  1  0  0  0  0
  8 24  1  0  0  0  0
  9 23  2  0  0  0  0
 10 32  1  0  0  0  0
 10 54  1  0  0  0  0
 11 12  1  0  0  0  0
 11 13  1  0  0  0  0
 11 33  1  0  0  0  0
 12 14  1  0  0  0  0
 12 34  1  0  0  0  0
 13 16  1  0  0  0  0
 13 35  1  0  0  0  0
 14 15  1  0  0  0  0
 14 36  1  0  0  0  0
 15 17  1  0  0  0  0
 15 37  1  0  0  0  0
 16 18  1  0  0  0  0
 16 19  2  0  0  0  0
 17 38  1  0  0  0  0
 17 39  1  0  0  0  0
 18 20  2  0  0  0  0
 19 21  1  0  0  0  0
 20 22  1  0  0  0  0
 20 23  1  0  0  0  0
 21 22  2  0  0  0  0
 21 43  1  0  0  0  0
 23 25  1  0  0  0  0
 24 25  2  0  0  0  0
 24 27  1  0  0  0  0
 25 46  1  0  0  0  0
 26 47  1  0  0  0  0
 26 48  1  0  0  0  0
 26 49  1  0  0  0  0
 27 28  2  0  0  0  0
 27 29  1  0  0  0  0
 28 30  1  0  0  0  0
 28 50  1  0  0  0  0
 29 31  2  0  0  0  0
 29 51  1  0  0  0  0
 30 32  2  0  0  0  0
 30 52  1  0  0  0  0
 31 32  1  0  0  0  0
 31 53  1  0  0  0  0
M  END
> <PUBCHEM_COMPOUND_CID>
44258316

> <PUBCHEM_CONFORMER_RMSD>
0.8

> <PUBCHEM_CONFORMER_DIVERSEORDER>
1
22
10
19
13
9
18
15
16
7
12
5
14
2
21
8
11
23
4
6
20
17
3
24

> <PUBCHEM_MMFF94_PARTIAL_CHARGES>
44
1 -0.56
10 -0.53
11 0.28
12 0.28
13 0.42
14 0.28
15 0.28
16 -0.14
17 0.28
18 0.08
19 0.08
2 -0.68
20 0.09
21 -0.15
22 0.08
23 0.47
24 0.05
25 -0.14
26 0.28
27 0.03
28 -0.15
29 -0.15
3 -0.68
30 -0.15
31 -0.15
32 0.08
4 -0.68
40 0.4
41 0.4
42 0.4
43 0.15
44 0.4
45 0.45
46 0.15
5 -0.68
50 0.15
51 0.15
52 0.15
53 0.15
54 0.45
6 -0.36
7 -0.53
8 -0.16
9 -0.57

> <PUBCHEM_EFFECTIVE_ROTOR_COUNT>
5.2

> <PUBCHEM_PHARMACOPHORE_FEATURES>
18
1 1 acceptor
1 10 donor
1 2 acceptor
1 2 donor
1 3 acceptor
1 3 donor
1 4 acceptor
1 4 donor
1 5 acceptor
1 5 donor
1 6 acceptor
1 7 donor
1 8 acceptor
1 9 acceptor
6 1 11 12 13 14 15 rings
6 16 18 19 20 21 22 rings
6 27 28 29 30 31 32 rings
6 8 20 22 23 24 25 rings

> <PUBCHEM_HEAVY_ATOM_COUNT>
32

> <PUBCHEM_ATOM_DEF_STEREO_COUNT>
3

> <PUBCHEM_ATOM_UDEF_STEREO_COUNT>
2

> <PUBCHEM_BOND_DEF_STEREO_COUNT>
0

> <PUBCHEM_BOND_UDEF_STEREO_COUNT>
0

> <PUBCHEM_ISOTOPIC_ATOM_COUNT>
0

> <PUBCHEM_COMPONENT_COUNT>
1

> <PUBCHEM_CACTVS_TAUTO_COUNT>
24

> <PUBCHEM_CONFORMER_ID>
02A3540C00000001

> <PUBCHEM_MMFF94_ENERGY>
112.0194

> <PUBCHEM_FEATURE_SELFOVERLAP>
91.425

> <PUBCHEM_SHAPE_FINGERPRINT>
10 15 18187076308445821744
10050765 1 18045776784912001229
10076449 9 18130236978144665420
10165383 225 17917428787754451600
10299344 5 16415479359412550175
11646440 116 18412267259234628089
11719270 70 18113333111458613515
11796584 16 15502373435472770937
11963148 33 18040709299213995563
12107698 1 16343986914156004065
12166972 35 18202850958667026297
12236239 1 14333403459357829580
12516196 113 18408884049508713965
12596602 18 17704357667374719059
12730499 353 18131068226062502190
13140716 1 18118120500912514265
13533116 47 17418096499178788142
13540713 4 18192701250750435476
13617811 41 18113905957137660116
13782708 43 18200596886715239094
14170010 4 18342175595976039025
14294032 229 17387693795764646829
14840074 17 18272364283288423303
14849402 71 17059488685741115601
15131766 46 15552733365421147240
15183329 4 15502372327455421869
15301273 46 18343585123323879825
18608769 82 18335985349901813410
19841028 212 16154251833593094312
20028762 73 18411421738993045751
20771845 171 16805329860094696570
21130935 74 17846782918837542911
21267235 1 18335427872432598221
21344244 181 18131081398195437270
21521721 280 18272651289644856408
21781051 124 17749405783434859659
21792938 703 18200873006670033479
22149856 69 18337967722860337073
22224240 67 18339916116676225035
22311459 1 18333732433222057511
22956985 138 17244122844601578770
23516275 137 16271107980659253607
23559900 14 18040998505452993789
23569914 152 16974470791637309293
23569914 2 15980555315532047097
23569917 315 18040999488784857754
23569943 247 18055363439564561343
24771293 8 18197766902936802536
2747138 104 18335710459616006297
3004659 81 17531249478402677445
3178227 256 18334300902709692409
335352 9 18261394489525884543
3383291 50 18260552255789112499
34797466 226 17917992780566858390
4073 2 17702940477911204006
4093350 32 17418096498878361318
5104073 3 18264483984551938433
57527295 17 17839487513590988246
58260988 647 17488196911180608558
59755656 215 18259985955228384579

> <PUBCHEM_SHAPE_MULTIPOLES>
599.85
20.13
2.41
1.46
20.98
0.07
0.02
5.54
0.9
-1.4
-0.34
-1.8
0.29
2.59

> <PUBCHEM_SHAPE_SELFOVERLAP>
1318.6

> <PUBCHEM_SHAPE_VOLUME>
320.5

> <PUBCHEM_COORDINATE_TYPE>
2
5
10

$$$$
