44256897
  -OEChem-03052615053D

 62 65  0     1  0  0  0  0  0999 V2000
    1.3858   -1.5125    0.0344 O   0  0  0  0  0  0  0  0  0  0  0  0
    1.1477   -0.1497   -1.8616 O   0  0  0  0  0  0  0  0  0  0  0  0
    3.3123   -4.5850    0.6224 O   0  0  0  0  0  0  0  0  0  0  0  0
    4.7498   -3.3335   -1.5489 O   0  0  0  0  0  0  0  0  0  0  0  0
    3.7909   -0.7337   -1.2304 O   0  0  0  0  0  0  0  0  0  0  0  0
    0.0419   -2.8388    2.2959 O   0  0  0  0  0  0  0  0  0  0  0  0
   -1.6381    1.8320   -0.4479 O   0  3  0  0  0  0  0  0  0  0  0  0
   -0.0897   -0.5385    2.2195 O   0  0  0  0  0  0  0  0  0  0  0  0
   -3.5537   -2.0160   -2.7120 O   0  0  0  0  0  0  0  0  0  0  0  0
   -6.3845    1.2062   -0.6542 O   0  0  0  0  0  0  0  0  0  0  0  0
    2.1770    3.3356    2.9017 O   0  0  0  0  0  0  0  0  0  0  0  0
    3.5720    4.0235   -1.6279 O   0  0  0  0  0  0  0  0  0  0  0  0
    3.9592    4.4275    1.0848 O   0  0  0  0  0  0  0  0  0  0  0  0
   -4.2357   -1.0192    2.9710 O   0  0  0  0  0  0  0  0  0  0  0  0
   -2.5894    0.5080    2.6147 O   0  0  0  0  0  0  0  0  0  0  0  0
    3.1106   -3.2341    0.2151 C   0  0  1  0  0  0  0  0  0  0  0  0
    3.3660   -3.1141   -1.2896 C   0  0  1  0  0  0  0  0  0  0  0  0
    1.6717   -2.8169    0.5498 C   0  0  1  0  0  0  0  0  0  0  0  0
    2.9474   -1.7371   -1.8043 C   0  0  1  0  0  0  0  0  0  0  0  0
    1.5061   -1.4445   -1.3883 C   0  0  1  0  0  0  0  0  0  0  0  0
    1.4359   -2.7769    2.0564 C   0  0  0  0  0  0  0  0  0  0  0  0
   -0.1471    0.1736   -1.5273 C   0  0  0  0  0  0  0  0  0  0  0  0
   -0.4381    1.4057   -0.7278 C   0  0  0  0  0  0  0  0  0  0  0  0
   -1.2042   -0.5440   -1.9291 C   0  0  0  0  0  0  0  0  0  0  0  0
   -2.5608   -0.1201   -1.6019 C   0  0  0  0  0  0  0  0  0  0  0  0
   -0.6156   -1.6339    2.3560 C   0  0  0  0  0  0  0  0  0  0  0  0
   -2.7365    1.0650   -0.8798 C   0  0  0  0  0  0  0  0  0  0  0  0
    0.7187    2.1999   -0.2520 C   0  0  0  0  0  0  0  0  0  0  0  0
   -3.6785   -0.8569   -2.0045 C   0  0  0  0  0  0  0  0  0  0  0  0
   -2.0819   -1.8789    2.6164 C   0  0  0  0  0  0  0  0  0  0  0  0
   -4.0199    1.5106   -0.5621 C   0  0  0  0  0  0  0  0  0  0  0  0
    1.6150    2.7472   -1.1698 C   0  0  0  0  0  0  0  0  0  0  0  0
    0.9110    2.4005    1.1150 C   0  0  0  0  0  0  0  0  0  0  0  0
   -4.9616   -0.4096   -1.6841 C   0  0  0  0  0  0  0  0  0  0  0  0
   -5.1320    0.7729   -0.9643 C   0  0  0  0  0  0  0  0  0  0  0  0
    1.9994    3.1484    1.5641 C   0  0  0  0  0  0  0  0  0  0  0  0
    2.7035    3.4952   -0.7209 C   0  0  0  0  0  0  0  0  0  0  0  0
    2.8957    3.6956    0.6460 C   0  0  0  0  0  0  0  0  0  0  0  0
   -2.9503   -0.6535    2.7254 C   0  0  0  0  0  0  0  0  0  0  0  0
    3.8333   -2.6212    0.7665 H   0  0  0  0  0  0  0  0  0  0  0  0
    2.8133   -3.8983   -1.8217 H   0  0  0  0  0  0  0  0  0  0  0  0
    0.9593   -3.5266    0.1067 H   0  0  0  0  0  0  0  0  0  0  0  0
    3.0752   -1.6644   -2.8892 H   0  0  0  0  0  0  0  0  0  0  0  0
    0.8601   -2.2049   -1.8471 H   0  0  0  0  0  0  0  0  0  0  0  0
    1.8888   -1.8930    2.5219 H   0  0  0  0  0  0  0  0  0  0  0  0
    1.8680   -3.6566    2.5438 H   0  0  0  0  0  0  0  0  0  0  0  0
    2.6742   -5.1420    0.1446 H   0  0  0  0  0  0  0  0  0  0  0  0
    4.8859   -3.2405   -2.5072 H   0  0  0  0  0  0  0  0  0  0  0  0
    3.5509   -0.6303   -0.2941 H   0  0  0  0  0  0  0  0  0  0  0  0
   -1.0804   -1.4284   -2.5439 H   0  0  0  0  0  0  0  0  0  0  0  0
   -2.4669   -2.4850    1.7888 H   0  0  0  0  0  0  0  0  0  0  0  0
   -2.1628   -2.4282    3.5608 H   0  0  0  0  0  0  0  0  0  0  0  0
   -4.1454    2.4310    0.0012 H   0  0  0  0  0  0  0  0  0  0  0  0
    1.4615    2.6030   -2.2368 H   0  0  0  0  0  0  0  0  0  0  0  0
    0.2023    1.9894    1.8285 H   0  0  0  0  0  0  0  0  0  0  0  0
   -5.8319   -0.9823   -1.9962 H   0  0  0  0  0  0  0  0  0  0  0  0
   -4.4378   -2.3768   -2.8957 H   0  0  0  0  0  0  0  0  0  0  0  0
   -7.0340    0.5752   -1.0093 H   0  0  0  0  0  0  0  0  0  0  0  0
    1.4629    2.8834    3.3829 H   0  0  0  0  0  0  0  0  0  0  0  0
    3.2819    3.7810   -2.5240 H   0  0  0  0  0  0  0  0  0  0  0  0
    4.4678    4.7246    0.3103 H   0  0  0  0  0  0  0  0  0  0  0  0
   -4.8290   -0.2414    3.0441 H   0  0  0  0  0  0  0  0  0  0  0  0
  1 18  1  0  0  0  0
  1 20  1  0  0  0  0
  2 20  1  0  0  0  0
  2 22  1  0  0  0  0
  3 16  1  0  0  0  0
  3 47  1  0  0  0  0
  4 17  1  0  0  0  0
  4 48  1  0  0  0  0
  5 19  1  0  0  0  0
  5 49  1  0  0  0  0
  6 21  1  0  0  0  0
  6 26  1  0  0  0  0
  7 23  2  0  0  0  0
  7 27  1  0  0  0  0
  8 26  2  0  0  0  0
  9 29  1  0  0  0  0
  9 57  1  0  0  0  0
 10 35  1  0  0  0  0
 10 58  1  0  0  0  0
 11 36  1  0  0  0  0
 11 59  1  0  0  0  0
 12 37  1  0  0  0  0
 12 60  1  0  0  0  0
 13 38  1  0  0  0  0
 13 61  1  0  0  0  0
 14 39  1  0  0  0  0
 14 62  1  0  0  0  0
 15 39  2  0  0  0  0
 16 17  1  0  0  0  0
 16 18  1  0  0  0  0
 16 40  1  0  0  0  0
 17 19  1  0  0  0  0
 17 41  1  0  0  0  0
 18 21  1  0  0  0  0
 18 42  1  0  0  0  0
 19 20  1  0  0  0  0
 19 43  1  0  0  0  0
 20 44  1  0  0  0  0
 21 45  1  0  0  0  0
 21 46  1  0  0  0  0
 22 23  1  0  0  0  0
 22 24  2  0  0  0  0
 23 28  1  0  0  0  0
 24 25  1  0  0  0  0
 24 50  1  0  0  0  0
 25 27  1  0  0  0  0
 25 29  2  0  0  0  0
 26 30  1  0  0  0  0
 27 31  2  0  0  0  0
 28 32  2  0  0  0  0
 28 33  1  0  0  0  0
 29 34  1  0  0  0  0
 30 39  1  0  0  0  0
 30 51  1  0  0  0  0
 30 52  1  0  0  0  0
 31 35  1  0  0  0  0
 31 53  1  0  0  0  0
 32 37  1  0  0  0  0
 32 54  1  0  0  0  0
 33 36  2  0  0  0  0
 33 55  1  0  0  0  0
 34 35  2  0  0  0  0
 34 56  1  0  0  0  0
 36 38  1  0  0  0  0
 37 38  2  0  0  0  0
M  CHG  1   7   1
M  END
> <PUBCHEM_COMPOUND_CID>
44256897

> <PUBCHEM_CONFORMER_RMSD>
1.2

> <PUBCHEM_CONFORMER_DIVERSEORDER>
1
37
81
58
101
23
142
106
29
76
83
67
8
3
56
137
59
130
126
145
141
95
118
140
74
50
65
122
72
143
85
53
25
138
2
91
40
144
79
55
89
24
11
131
26
16
13
31
113
54
94
5
61
119
20
44
86
109
36
132
4
22
6
64
123
47
135
43
77
97
136
73
49
12
27
34
103
107
62
18
60
99
51
100
14
57
42
104
98
17
52
46
78
125
96
84
10
102
146
110
45
30
41
111
128
71
15
87
70
112
82
7
63
80
115
134
116
32
66
69
139
92
133
124
33
117
120
38
48
28
105
88
108
19
114
9
39
68
93
35
75
21
121
129
127
90

> <PUBCHEM_MMFF94_PARTIAL_CHARGES>
53
1 -0.56
10 -0.53
11 -0.53
12 -0.53
13 -0.53
14 -0.65
15 -0.57
16 0.28
17 0.28
18 0.28
19 0.28
2 -0.36
20 0.56
21 0.28
22 0.09
23 0.85
24 -0.18
25 0.03
26 0.66
27 0.92
28 0.09
29 0.08
3 -0.68
30 0.12
31 -0.15
32 -0.15
33 -0.15
34 -0.15
35 0.08
36 0.08
37 0.08
38 0.08
39 0.66
4 -0.68
47 0.4
48 0.4
49 0.4
5 -0.68
50 0.15
53 0.15
54 0.15
55 0.15
56 0.15
57 0.45
58 0.45
59 0.45
6 -0.43
60 0.45
61 0.45
62 0.5
7 -0.87
8 -0.57
9 -0.53

> <PUBCHEM_EFFECTIVE_ROTOR_COUNT>
9.2

> <PUBCHEM_PHARMACOPHORE_FEATURES>
22
1 1 acceptor
1 10 donor
1 11 donor
1 12 donor
1 13 donor
1 14 acceptor
1 15 acceptor
1 2 acceptor
1 3 acceptor
1 3 donor
1 30 anion
1 4 acceptor
1 4 donor
1 5 acceptor
1 5 donor
1 8 acceptor
1 9 donor
3 14 15 39 anion
6 1 16 17 18 19 20 rings
6 25 27 29 31 34 35 rings
6 28 32 33 36 37 38 rings
6 7 22 23 24 25 27 rings

> <PUBCHEM_HEAVY_ATOM_COUNT>
39

> <PUBCHEM_ATOM_DEF_STEREO_COUNT>
2

> <PUBCHEM_ATOM_UDEF_STEREO_COUNT>
3

> <PUBCHEM_BOND_DEF_STEREO_COUNT>
0

> <PUBCHEM_BOND_UDEF_STEREO_COUNT>
0

> <PUBCHEM_ISOTOPIC_ATOM_COUNT>
0

> <PUBCHEM_COMPONENT_COUNT>
1

> <PUBCHEM_CACTVS_TAUTO_COUNT>
217

> <PUBCHEM_CONFORMER_ID>
02A34E8100000001

> <PUBCHEM_MMFF94_ENERGY>
108.023

> <PUBCHEM_FEATURE_SELFOVERLAP>
112.094

> <PUBCHEM_SHAPE_FINGERPRINT>
10032420 55 17606955101396823093
11007060 377 17695904819386394176
11421498 54 17831854651366170722
11578080 2 18042989712162232401
12156800 1 16443630228131744322
12160290 23 17186467654258681468
12539773 59 16891441162149061371
12597179 24 18116146860324013069
12788726 201 17470726602805342018
133893 2 18272653462798236824
144659 39 17243012629540546028
14674994 50 16898768887414863150
14856354 85 14330548014755131406
14932702 115 17388575702473066655
15200665 1 17189806278551593220
20567600 347 18051109673730530933
20600515 1 17627768843467640140
20764821 26 18041840756385427227
20775438 99 18190160460612134535
21796203 349 17982205298689828735
23366157 5 18410844482244936853
23419403 2 18189640347785842847
23559900 14 17604162462617371253
238918 7 17974294518675348194
244849 19 18261404368488676985
24941158 1 18411705412787024051
35225 105 16813171812697835853
469060 322 17700698363085266751
6376802 137 17465634824661079130
9981440 41 18050275170280477533

> <PUBCHEM_SHAPE_MULTIPOLES>
714.56
8.88
5.78
3.28
8.95
1.96
-2.12
-0.06
3.36
-10.7
-1.44
1.78
-1.31
1.87

> <PUBCHEM_SHAPE_SELFOVERLAP>
1557.977

> <PUBCHEM_SHAPE_VOLUME>
382.2

> <PUBCHEM_COORDINATE_TYPE>
2
5
10

$$$$
