44257121
  -OEChem-03052615043D

 50 52  0     1  0  0  0  0  0999 V2000
   -0.1143   -0.0505   -0.4349 O   0  0  0  0  0  0  0  0  0  0  0  0
   -1.1539   -3.4019    0.7368 O   0  0  0  0  0  0  0  0  0  0  0  0
    3.9183   -2.4433    0.7775 O   0  0  0  0  0  0  0  0  0  0  0  0
    4.1330    2.0354   -0.7874 O   0  0  0  0  0  0  0  0  0  0  0  0
   -6.3372    0.0904    0.0311 O   0  0  0  0  0  0  0  0  0  0  0  0
   -0.4014   -2.1934    0.7521 C   0  0  2  0  0  0  0  0  0  0  0  0
   -0.8542   -1.2814   -0.3967 C   0  0  1  0  0  0  0  0  0  0  0  0
    1.0759   -2.5335    0.5739 C   0  0  0  0  0  0  0  0  0  0  0  0
    1.8701   -1.3159    0.2100 C   0  0  0  0  0  0  0  0  0  0  0  0
    1.2411   -0.1653   -0.2780 C   0  0  0  0  0  0  0  0  0  0  0  0
    1.9952    0.9655   -0.6032 C   0  0  0  0  0  0  0  0  0  0  0  0
   -2.3220   -0.9140   -0.2827 C   0  0  0  0  0  0  0  0  0  0  0  0
    3.2660   -1.3316    0.3306 C   0  0  0  0  0  0  0  0  0  0  0  0
    3.3825    0.9437   -0.4687 C   0  0  0  0  0  0  0  0  0  0  0  0
    1.3225    2.2049   -1.1043 C   0  0  0  0  0  0  0  0  0  0  0  0
    4.0184   -0.2059   -0.0057 C   0  0  0  0  0  0  0  0  0  0  0  0
   -3.2059   -1.2435   -1.3103 C   0  0  0  0  0  0  0  0  0  0  0  0
   -2.7876   -0.2469    0.8504 C   0  0  0  0  0  0  0  0  0  0  0  0
    1.2517    3.2920   -0.0625 C   0  0  0  0  0  0  0  0  0  0  0  0
   -4.5551   -0.9058   -1.2051 C   0  0  0  0  0  0  0  0  0  0  0  0
   -4.1368    0.0910    0.9557 C   0  0  0  0  0  0  0  0  0  0  0  0
   -5.0205   -0.2384   -0.0719 C   0  0  0  0  0  0  0  0  0  0  0  0
    0.1532    3.8619    0.4685 C   0  0  0  0  0  0  0  0  0  0  0  0
    4.3256   -3.3922   -0.2052 C   0  0  0  0  0  0  0  0  0  0  0  0
    0.1546    4.9461    1.5085 C   0  0  0  0  0  0  0  0  0  0  0  0
   -1.2193    3.4326    0.0217 C   0  0  0  0  0  0  0  0  0  0  0  0
   -0.5420   -1.7042    1.7238 H   0  0  0  0  0  0  0  0  0  0  0  0
   -0.6992   -1.7959   -1.3559 H   0  0  0  0  0  0  0  0  0  0  0  0
    1.1899   -3.2884   -0.2143 H   0  0  0  0  0  0  0  0  0  0  0  0
    1.4474   -2.9850    1.5020 H   0  0  0  0  0  0  0  0  0  0  0  0
    1.9080    2.6009   -1.9467 H   0  0  0  0  0  0  0  0  0  0  0  0
    0.3608    1.9821   -1.5716 H   0  0  0  0  0  0  0  0  0  0  0  0
    5.1005   -0.2322    0.0978 H   0  0  0  0  0  0  0  0  0  0  0  0
   -0.8283   -3.9583    1.4648 H   0  0  0  0  0  0  0  0  0  0  0  0
   -2.8587   -1.7635   -2.1991 H   0  0  0  0  0  0  0  0  0  0  0  0
   -2.1129    0.0295    1.6559 H   0  0  0  0  0  0  0  0  0  0  0  0
    2.2142    3.6616    0.2898 H   0  0  0  0  0  0  0  0  0  0  0  0
   -5.2388   -1.1653   -2.0087 H   0  0  0  0  0  0  0  0  0  0  0  0
   -4.4863    0.6134    1.8422 H   0  0  0  0  0  0  0  0  0  0  0  0
    5.0712    1.8339   -0.6292 H   0  0  0  0  0  0  0  0  0  0  0  0
    4.7488   -4.2585    0.3106 H   0  0  0  0  0  0  0  0  0  0  0  0
    5.0963   -2.9603   -0.8514 H   0  0  0  0  0  0  0  0  0  0  0  0
    3.4773   -3.7264   -0.8098 H   0  0  0  0  0  0  0  0  0  0  0  0
   -0.3602    5.8360    1.1324 H   0  0  0  0  0  0  0  0  0  0  0  0
   -0.3513    4.6054    2.4174 H   0  0  0  0  0  0  0  0  0  0  0  0
    1.1732    5.2396    1.7827 H   0  0  0  0  0  0  0  0  0  0  0  0
   -1.8725    3.3171    0.8946 H   0  0  0  0  0  0  0  0  0  0  0  0
   -1.6572    4.1994   -0.6257 H   0  0  0  0  0  0  0  0  0  0  0  0
   -1.2596    2.4787   -0.5036 H   0  0  0  0  0  0  0  0  0  0  0  0
   -6.4827    0.5463    0.8779 H   0  0  0  0  0  0  0  0  0  0  0  0
  1  7  1  0  0  0  0
  1 10  1  0  0  0  0
  2  6  1  0  0  0  0
  2 34  1  0  0  0  0
  3 13  1  0  0  0  0
  3 24  1  0  0  0  0
  4 14  1  0  0  0  0
  4 40  1  0  0  0  0
  5 22  1  0  0  0  0
  5 50  1  0  0  0  0
  6  7  1  0  0  0  0
  6  8  1  0  0  0  0
  6 27  1  0  0  0  0
  7 12  1  0  0  0  0
  7 28  1  0  0  0  0
  8  9  1  0  0  0  0
  8 29  1  0  0  0  0
  8 30  1  0  0  0  0
  9 10  1  0  0  0  0
  9 13  2  0  0  0  0
 10 11  2  0  0  0  0
 11 14  1  0  0  0  0
 11 15  1  0  0  0  0
 12 17  2  0  0  0  0
 12 18  1  0  0  0  0
 13 16  1  0  0  0  0
 14 16  2  0  0  0  0
 15 19  1  0  0  0  0
 15 31  1  0  0  0  0
 15 32  1  0  0  0  0
 16 33  1  0  0  0  0
 17 20  1  0  0  0  0
 17 35  1  0  0  0  0
 18 21  2  0  0  0  0
 18 36  1  0  0  0  0
 19 23  2  0  0  0  0
 19 37  1  0  0  0  0
 20 22  2  0  0  0  0
 20 38  1  0  0  0  0
 21 22  1  0  0  0  0
 21 39  1  0  0  0  0
 23 25  1  0  0  0  0
 23 26  1  0  0  0  0
 24 41  1  0  0  0  0
 24 42  1  0  0  0  0
 24 43  1  0  0  0  0
 25 44  1  0  0  0  0
 25 45  1  0  0  0  0
 25 46  1  0  0  0  0
 26 47  1  0  0  0  0
 26 48  1  0  0  0  0
 26 49  1  0  0  0  0
M  END
> <PUBCHEM_COMPOUND_CID>
44257121

> <PUBCHEM_CONFORMER_RMSD>
0.8

> <PUBCHEM_CONFORMER_DIVERSEORDER>
1
12
6
23
4
18
22
17
21
10
7
16
15
3
13
20
11
19
8
9
14
5
2

> <PUBCHEM_MMFF94_PARTIAL_CHARGES>
35
1 -0.36
10 0.08
11 -0.14
12 -0.14
13 0.08
14 0.08
15 0.28
16 -0.15
17 -0.15
18 -0.15
19 -0.29
2 -0.68
20 -0.15
21 -0.15
22 0.08
23 -0.28
24 0.28
25 0.14
26 0.14
3 -0.36
33 0.15
34 0.4
35 0.15
36 0.15
37 0.15
38 0.15
39 0.15
4 -0.53
40 0.45
5 -0.53
50 0.45
6 0.28
7 0.42
8 0.14
9 -0.14

> <PUBCHEM_EFFECTIVE_ROTOR_COUNT>
4.8

> <PUBCHEM_PHARMACOPHORE_FEATURES>
10
1 1 acceptor
1 2 acceptor
1 2 donor
1 3 acceptor
1 4 donor
1 5 donor
3 23 25 26 hydrophobe
6 1 6 7 8 9 10 rings
6 12 17 18 20 21 22 rings
6 9 10 11 13 14 16 rings

> <PUBCHEM_HEAVY_ATOM_COUNT>
26

> <PUBCHEM_ATOM_DEF_STEREO_COUNT>
2

> <PUBCHEM_ATOM_UDEF_STEREO_COUNT>
0

> <PUBCHEM_BOND_DEF_STEREO_COUNT>
0

> <PUBCHEM_BOND_UDEF_STEREO_COUNT>
0

> <PUBCHEM_ISOTOPIC_ATOM_COUNT>
0

> <PUBCHEM_COMPONENT_COUNT>
1

> <PUBCHEM_CACTVS_TAUTO_COUNT>
6

> <PUBCHEM_CONFORMER_ID>
02A34F6100000001

> <PUBCHEM_MMFF94_ENERGY>
81.2851

> <PUBCHEM_FEATURE_SELFOVERLAP>
50.775

> <PUBCHEM_SHAPE_FINGERPRINT>
10074138 170 15447162214851245435
10411042 1 18118963590636032698
10688039 33 18040437659769907837
1100329 8 18265898140840743760
12156800 1 17757797105954541353
12236239 1 18273210877335684495
12293681 160 18049468090851152900
12403259 226 18333725845285752567
12507560 14 18410853244031000062
12553582 1 18410860992346927324
12788726 201 18339655438427202332
13134695 92 18412257363228875940
13140716 1 17977102684621911288
13540713 5 17972892350384232526
13583140 156 18191877931854273723
138480 1 18411696629647799873
13965767 371 17267813978599720569
14464042 87 18272375248292723257
14466204 15 18121492725072323512
14790565 3 17757842495564745772
14866123 147 17616251377947910530
14955137 171 18410300181498716235
15081414 286 18408886243725202116
15420108 30 17911498094800427226
1813 80 18197787596205409446
18335252 114 18338784634425091341
18681886 176 18342164579738956971
20642791 13 18194678160658926566
20642791 178 17609502983777960388
21033648 29 17459451390805151253
21041028 32 18338515214313602852
21344244 78 18339344293383726027
21478907 32 18121214286431665142
21641784 216 17969521328926387756
22122407 14 18269293343602952177
23559900 14 18268705193926073298
283562 15 18120088386493317122
335352 9 18333732451188352446
345986 75 18116697535466469026
3886686 26 17401452320123410472
474 4 18409730690272919939
7164475 11 18268991986531141262
7471813 234 18342443838438020813
84936 182 17909546503793444793
9981440 41 17332226002332595937

> <PUBCHEM_SHAPE_MULTIPOLES>
505.72
9.24
5.3
1.08
8.32
6.04
0.01
-4.82
0.99
-3.45
-1.78
0.41
0.24
-1.04

> <PUBCHEM_SHAPE_SELFOVERLAP>
1086.127

> <PUBCHEM_SHAPE_VOLUME>
279

> <PUBCHEM_COORDINATE_TYPE>
2
5
10

$$$$
