44257403
  -OEChem-03052615063D

 44 47  0     1  0  0  0  0  0999 V2000
   -1.2454   -1.7261   -0.4241 O   0  0  0  0  0  0  0  0  0  0  0  0
    1.4432   -2.6010   -0.6808 O   0  0  0  0  0  0  0  0  0  0  0  0
   -0.7441    1.9925   -2.0840 O   0  0  0  0  0  0  0  0  0  0  0  0
    3.7250    2.2908    0.4612 O   0  0  0  0  0  0  0  0  0  0  0  0
    4.7810   -0.0639    1.4889 O   0  0  0  0  0  0  0  0  0  0  0  0
   -2.8137    2.8518   -0.8004 O   0  0  0  0  0  0  0  0  0  0  0  0
   -5.0261   -0.2557    2.0207 O   0  0  0  0  0  0  0  0  0  0  0  0
    0.1505   -0.2246   -1.8105 C   0  0  2  0  0  0  0  0  0  0  0  0
   -0.5557   -1.5747   -1.6733 C   0  0  1  0  0  0  0  0  0  0  0  0
    1.3762   -0.1652   -0.9274 C   0  0  0  0  0  0  0  0  0  0  0  0
    0.4876   -2.6837   -1.7438 C   0  0  0  0  0  0  0  0  0  0  0  0
   -0.8534    0.8825   -1.5731 C   0  0  0  0  0  0  0  0  0  0  0  0
    1.9459   -1.3494   -0.4337 C   0  0  0  0  0  0  0  0  0  0  0  0
   -1.9749    0.5824   -0.6624 C   0  0  0  0  0  0  0  0  0  0  0  0
   -2.0981   -0.7002   -0.1303 C   0  0  0  0  0  0  0  0  0  0  0  0
    2.0072    1.0523   -0.6286 C   0  0  0  0  0  0  0  0  0  0  0  0
    3.0781   -1.3080    0.3865 C   0  0  0  0  0  0  0  0  0  0  0  0
   -2.8860    1.5827   -0.3098 C   0  0  0  0  0  0  0  0  0  0  0  0
    3.1442    1.0905    0.1811 C   0  0  0  0  0  0  0  0  0  0  0  0
   -3.1172   -0.9770    0.7831 C   0  0  0  0  0  0  0  0  0  0  0  0
    3.6755   -0.0886    0.6943 C   0  0  0  0  0  0  0  0  0  0  0  0
   -4.0268    0.0192    1.1383 C   0  0  0  0  0  0  0  0  0  0  0  0
   -3.9136    1.2959    0.5893 C   0  0  0  0  0  0  0  0  0  0  0  0
    3.2647    2.9774    1.6234 C   0  0  0  0  0  0  0  0  0  0  0  0
    5.2601   -1.3176    1.9726 C   0  0  0  0  0  0  0  0  0  0  0  0
   -5.0842   -1.5823    2.5428 C   0  0  0  0  0  0  0  0  0  0  0  0
    0.4932   -0.1317   -2.8506 H   0  0  0  0  0  0  0  0  0  0  0  0
   -1.2858   -1.7122   -2.4827 H   0  0  0  0  0  0  0  0  0  0  0  0
   -0.0008   -3.6593   -1.6437 H   0  0  0  0  0  0  0  0  0  0  0  0
    1.0208   -2.6758   -2.7022 H   0  0  0  0  0  0  0  0  0  0  0  0
    1.6192    1.9865   -1.0260 H   0  0  0  0  0  0  0  0  0  0  0  0
    3.4488   -2.2628    0.7455 H   0  0  0  0  0  0  0  0  0  0  0  0
   -3.1557   -1.9874    1.1773 H   0  0  0  0  0  0  0  0  0  0  0  0
   -4.6242    2.0699    0.8690 H   0  0  0  0  0  0  0  0  0  0  0  0
   -2.0882    2.9316   -1.4378 H   0  0  0  0  0  0  0  0  0  0  0  0
    3.8258    3.9114    1.7143 H   0  0  0  0  0  0  0  0  0  0  0  0
    3.4387    2.3758    2.5211 H   0  0  0  0  0  0  0  0  0  0  0  0
    2.2002    3.2159    1.5312 H   0  0  0  0  0  0  0  0  0  0  0  0
    6.1391   -1.1091    2.5916 H   0  0  0  0  0  0  0  0  0  0  0  0
    5.5942   -1.9647    1.1545 H   0  0  0  0  0  0  0  0  0  0  0  0
    4.5253   -1.8082    2.6201 H   0  0  0  0  0  0  0  0  0  0  0  0
   -5.9382   -1.6228    3.2268 H   0  0  0  0  0  0  0  0  0  0  0  0
   -4.1923   -1.8228    3.1314 H   0  0  0  0  0  0  0  0  0  0  0  0
   -5.2725   -2.3179    1.7534 H   0  0  0  0  0  0  0  0  0  0  0  0
  1  9  1  0  0  0  0
  1 15  1  0  0  0  0
  2 11  1  0  0  0  0
  2 13  1  0  0  0  0
  3 12  2  0  0  0  0
  4 19  1  0  0  0  0
  4 24  1  0  0  0  0
  5 21  1  0  0  0  0
  5 25  1  0  0  0  0
  6 18  1  0  0  0  0
  6 35  1  0  0  0  0
  7 22  1  0  0  0  0
  7 26  1  0  0  0  0
  8  9  1  0  0  0  0
  8 10  1  0  0  0  0
  8 12  1  0  0  0  0
  8 27  1  0  0  0  0
  9 11  1  0  0  0  0
  9 28  1  0  0  0  0
 10 13  1  0  0  0  0
 10 16  2  0  0  0  0
 11 29  1  0  0  0  0
 11 30  1  0  0  0  0
 12 14  1  0  0  0  0
 13 17  2  0  0  0  0
 14 15  1  0  0  0  0
 14 18  2  0  0  0  0
 15 20  2  0  0  0  0
 16 19  1  0  0  0  0
 16 31  1  0  0  0  0
 17 21  1  0  0  0  0
 17 32  1  0  0  0  0
 18 23  1  0  0  0  0
 19 21  2  0  0  0  0
 20 22  1  0  0  0  0
 20 33  1  0  0  0  0
 22 23  2  0  0  0  0
 23 34  1  0  0  0  0
 24 36  1  0  0  0  0
 24 37  1  0  0  0  0
 24 38  1  0  0  0  0
 25 39  1  0  0  0  0
 25 40  1  0  0  0  0
 25 41  1  0  0  0  0
 26 42  1  0  0  0  0
 26 43  1  0  0  0  0
 26 44  1  0  0  0  0
M  END
> <PUBCHEM_COMPOUND_CID>
44257403

> <PUBCHEM_CONFORMER_RMSD>
0.8

> <PUBCHEM_CONFORMER_DIVERSEORDER>
1
5
2
4
3

> <PUBCHEM_MMFF94_PARTIAL_CHARGES>
31
1 -0.36
10 -0.14
11 0.28
12 0.42
13 0.08
14 0.09
15 0.08
16 -0.15
17 -0.15
18 0.08
19 0.08
2 -0.36
20 -0.15
21 0.08
22 0.08
23 -0.15
24 0.28
25 0.28
26 0.28
3 -0.57
31 0.15
32 0.15
33 0.15
34 0.15
35 0.45
4 -0.36
5 -0.36
6 -0.53
7 -0.36
8 0.2
9 0.28

> <PUBCHEM_EFFECTIVE_ROTOR_COUNT>
3.6

> <PUBCHEM_PHARMACOPHORE_FEATURES>
11
1 1 acceptor
1 2 acceptor
1 3 acceptor
1 4 acceptor
1 5 acceptor
1 6 donor
1 7 acceptor
6 1 8 9 12 14 15 rings
6 10 13 16 17 19 21 rings
6 14 15 18 20 22 23 rings
6 2 8 9 10 11 13 rings

> <PUBCHEM_HEAVY_ATOM_COUNT>
26

> <PUBCHEM_ATOM_DEF_STEREO_COUNT>
0

> <PUBCHEM_ATOM_UDEF_STEREO_COUNT>
2

> <PUBCHEM_BOND_DEF_STEREO_COUNT>
0

> <PUBCHEM_BOND_UDEF_STEREO_COUNT>
0

> <PUBCHEM_ISOTOPIC_ATOM_COUNT>
0

> <PUBCHEM_COMPONENT_COUNT>
1

> <PUBCHEM_CACTVS_TAUTO_COUNT>
9

> <PUBCHEM_CONFORMER_ID>
02A3507B00000001

> <PUBCHEM_MMFF94_ENERGY>
113.3825

> <PUBCHEM_FEATURE_SELFOVERLAP>
55.991

> <PUBCHEM_SHAPE_FINGERPRINT>
10042902 136 16008756800904709314
10165383 225 18057064560298455100
10319926 262 18117000991822393931
10498660 4 13398631598346527931
11582403 64 17104766325432581965
11640471 11 16271066130106542767
11796584 16 15068622751224585979
12363563 72 12829202286831342875
12633257 1 18272367607012711946
12670546 177 10807928288944743498
12788726 201 14652650314682486492
12892183 10 18186802503958590784
12895836 83 13039185888423607059
12895837 130 14404607883448001354
13103583 49 17604148104003519960
13140716 1 18339903992664172932
13583140 156 17969203578107196258
14178342 30 17677622960372343131
14223421 5 18336837381382141301
14341114 328 17703236216705848163
14848178 5 16153996862759365795
14950920 106 18260260858741180760
14955137 171 18340485548626968930
15209289 33 17022898996068048826
15210252 30 13470416530185473011
1813 80 14923946760141107054
1979834 28 18196401228412751331
20626108 58 15357988918513863563
20775530 9 13913758422171966345
21033648 29 18199759054897061609
21731228 192 18272644658358107438
21756936 100 17487896924804985904
23559900 14 18044682831357074239
25222932 49 16522766573067545563
2838139 119 14188705568805906538
312425 83 12463577296043459050
3472631 163 14117512130139122905
392239 28 18130509721020431083
4098825 35 12319736990095900944
4280585 95 8932794814276936816
463206 1 12252180818179642801
469060 322 17683785971790393916
474 4 17632579335825127477
484985 159 16010412587958957299
49207404 50 18340779156348012807
5081480 168 16485591818523147332
5104073 3 18260267434304936344
5252454 2 17985543592496989776
57724786 102 16917067793902334776
633830 44 15984829185863759015
960060 61 11169909524062752555

> <PUBCHEM_SHAPE_MULTIPOLES>
493.98
9.71
2.88
2.18
0.53
0.73
-0.52
0.88
-9.65
-1.13
0.38
0.96
-0.41
1.41

> <PUBCHEM_SHAPE_SELFOVERLAP>
1097.703

> <PUBCHEM_SHAPE_VOLUME>
262

> <PUBCHEM_COORDINATE_TYPE>
2
5
10

$$$$
