44257826
  -OEChem-03052615083D

 68 72  0     1  0  0  0  0  0999 V2000
   -3.8066    0.1386   -0.4295 O   0  0  0  0  0  0  0  0  0  0  0  0
   -7.0184   -1.3097   -1.4711 O   0  0  0  0  0  0  0  0  0  0  0  0
   -7.7739    1.3175   -0.5358 O   0  0  0  0  0  0  0  0  0  0  0  0
   -3.2745    1.8304    1.1079 O   0  0  0  0  0  0  0  0  0  0  0  0
   -5.2724    2.5418   -0.6888 O   0  0  0  0  0  0  0  0  0  0  0  0
   -2.8649   -2.1664   -1.5702 O   0  0  0  0  0  0  0  0  0  0  0  0
    1.4223    1.6596    0.3876 O   0  0  0  0  0  0  0  0  0  0  0  0
   -0.6306   -0.9466    3.9216 O   0  0  0  0  0  0  0  0  0  0  0  0
   -1.7776   -0.2463   -2.2548 O   0  0  0  0  0  0  0  0  0  0  0  0
    1.9512   -0.9713    3.4532 O   0  0  0  0  0  0  0  0  0  0  0  0
    6.8352    3.1887   -2.4914 O   0  0  0  0  0  0  0  0  0  0  0  0
    5.4387   -3.8264    0.3886 O   0  0  0  0  0  0  0  0  0  0  0  0
   -6.0857   -0.2629   -1.2148 C   0  0  1  0  0  0  0  0  0  0  0  0
   -6.6148    0.6228   -0.0837 C   0  0  1  0  0  0  0  0  0  0  0  0
   -4.7334   -0.8773   -0.8270 C   0  0  1  0  0  0  0  0  0  0  0  0
   -5.5490    1.6200    0.3702 C   0  0  1  0  0  0  0  0  0  0  0  0
   -4.2559    0.8786    0.7080 C   0  0  1  0  0  0  0  0  0  0  0  0
   -4.1086   -1.6379   -1.9923 C   0  0  0  0  0  0  0  0  0  0  0  0
   -2.0462    1.3369    1.4582 C   0  0  0  0  0  0  0  0  0  0  0  0
   -0.9088    1.7358    0.7555 C   0  0  0  0  0  0  0  0  0  0  0  0
   -1.9346    0.4356    2.5179 C   0  0  0  0  0  0  0  0  0  0  0  0
    0.3410    1.2310    1.1150 C   0  0  0  0  0  0  0  0  0  0  0  0
   -1.7754   -1.3626   -1.7607 C   0  0  0  0  0  0  0  0  0  0  0  0
    0.4506    0.3313    2.1740 C   0  0  0  0  0  0  0  0  0  0  0  0
   -0.6856   -0.0706    2.8801 C   0  0  0  0  0  0  0  0  0  0  0  0
    1.7809   -0.1835    2.5330 C   0  0  0  0  0  0  0  0  0  0  0  0
   -0.5795   -2.0789   -1.2625 C   0  0  0  0  0  0  0  0  0  0  0  0
    2.6764    1.1681    0.7165 C   0  0  0  0  0  0  0  0  0  0  0  0
    2.9112    0.3050    1.7177 C   0  0  0  0  0  0  0  0  0  0  0  0
    3.7679    1.6969   -0.1258 C   0  0  0  0  0  0  0  0  0  0  0  0
    0.6229   -1.4911   -1.3400 C   0  0  0  0  0  0  0  0  0  0  0  0
    5.0482    1.8500    0.4067 C   0  0  0  0  0  0  0  0  0  0  0  0
    3.5186    2.0447   -1.4534 C   0  0  0  0  0  0  0  0  0  0  0  0
    1.8847   -2.1039   -0.8883 C   0  0  0  0  0  0  0  0  0  0  0  0
    6.0789    2.3509   -0.3884 C   0  0  0  0  0  0  0  0  0  0  0  0
    4.5493    2.5458   -2.2485 C   0  0  0  0  0  0  0  0  0  0  0  0
    5.8294    2.6989   -1.7160 C   0  0  0  0  0  0  0  0  0  0  0  0
    1.8601   -3.1614    0.0210 C   0  0  0  0  0  0  0  0  0  0  0  0
    3.1036   -1.6255   -1.3689 C   0  0  0  0  0  0  0  0  0  0  0  0
    3.0543   -3.7404    0.4498 C   0  0  0  0  0  0  0  0  0  0  0  0
    4.2980   -2.2045   -0.9401 C   0  0  0  0  0  0  0  0  0  0  0  0
    4.2733   -3.2619   -0.0307 C   0  0  0  0  0  0  0  0  0  0  0  0
   -6.0001    0.3232   -2.1372 H   0  0  0  0  0  0  0  0  0  0  0  0
   -6.9271   -0.0039    0.7608 H   0  0  0  0  0  0  0  0  0  0  0  0
   -4.8494   -1.5790    0.0103 H   0  0  0  0  0  0  0  0  0  0  0  0
   -5.9018    2.2186    1.2165 H   0  0  0  0  0  0  0  0  0  0  0  0
   -4.4537    0.1861    1.5364 H   0  0  0  0  0  0  0  0  0  0  0  0
   -3.9870   -0.9981   -2.8750 H   0  0  0  0  0  0  0  0  0  0  0  0
   -4.7429   -2.4797   -2.2894 H   0  0  0  0  0  0  0  0  0  0  0  0
   -7.1017   -1.8431   -0.6623 H   0  0  0  0  0  0  0  0  0  0  0  0
   -8.0817    1.8792    0.1958 H   0  0  0  0  0  0  0  0  0  0  0  0
   -4.7764    2.0732   -1.3810 H   0  0  0  0  0  0  0  0  0  0  0  0
   -0.9992    2.4363   -0.0707 H   0  0  0  0  0  0  0  0  0  0  0  0
   -2.8135    0.1332    3.0816 H   0  0  0  0  0  0  0  0  0  0  0  0
   -0.7328   -3.0751   -0.8645 H   0  0  0  0  0  0  0  0  0  0  0  0
    3.8904   -0.0881    1.9647 H   0  0  0  0  0  0  0  0  0  0  0  0
    0.2816   -1.2372    4.0737 H   0  0  0  0  0  0  0  0  0  0  0  0
    0.7194   -0.4987   -1.7742 H   0  0  0  0  0  0  0  0  0  0  0  0
    5.2777    1.6113    1.4416 H   0  0  0  0  0  0  0  0  0  0  0  0
    2.5325    1.9277   -1.8962 H   0  0  0  0  0  0  0  0  0  0  0  0
    7.0731    2.4726    0.0330 H   0  0  0  0  0  0  0  0  0  0  0  0
    4.3428    2.8113   -3.2818 H   0  0  0  0  0  0  0  0  0  0  0  0
    0.9367   -3.5514    0.4387 H   0  0  0  0  0  0  0  0  0  0  0  0
    3.1401   -0.8160   -2.0923 H   0  0  0  0  0  0  0  0  0  0  0  0
    3.0296   -4.5601    1.1626 H   0  0  0  0  0  0  0  0  0  0  0  0
    5.2407   -1.8239   -1.3241 H   0  0  0  0  0  0  0  0  0  0  0  0
    6.4855    3.3761   -3.3795 H   0  0  0  0  0  0  0  0  0  0  0  0
    6.1822   -3.3710   -0.0424 H   0  0  0  0  0  0  0  0  0  0  0  0
  1 15  1  0  0  0  0
  1 17  1  0  0  0  0
  2 13  1  0  0  0  0
  2 50  1  0  0  0  0
  3 14  1  0  0  0  0
  3 51  1  0  0  0  0
  4 17  1  0  0  0  0
  4 19  1  0  0  0  0
  5 16  1  0  0  0  0
  5 52  1  0  0  0  0
  6 18  1  0  0  0  0
  6 23  1  0  0  0  0
  7 22  1  0  0  0  0
  7 28  1  0  0  0  0
  8 25  1  0  0  0  0
  8 57  1  0  0  0  0
  9 23  2  0  0  0  0
 10 26  2  0  0  0  0
 11 37  1  0  0  0  0
 11 67  1  0  0  0  0
 12 42  1  0  0  0  0
 12 68  1  0  0  0  0
 13 14  1  0  0  0  0
 13 15  1  0  0  0  0
 13 43  1  0  0  0  0
 14 16  1  0  0  0  0
 14 44  1  0  0  0  0
 15 18  1  0  0  0  0
 15 45  1  0  0  0  0
 16 17  1  0  0  0  0
 16 46  1  0  0  0  0
 17 47  1  0  0  0  0
 18 48  1  0  0  0  0
 18 49  1  0  0  0  0
 19 20  1  0  0  0  0
 19 21  2  0  0  0  0
 20 22  2  0  0  0  0
 20 53  1  0  0  0  0
 21 25  1  0  0  0  0
 21 54  1  0  0  0  0
 22 24  1  0  0  0  0
 23 27  1  0  0  0  0
 24 25  2  0  0  0  0
 24 26  1  0  0  0  0
 26 29  1  0  0  0  0
 27 31  2  0  0  0  0
 27 55  1  0  0  0  0
 28 29  2  0  0  0  0
 28 30  1  0  0  0  0
 29 56  1  0  0  0  0
 30 32  2  0  0  0  0
 30 33  1  0  0  0  0
 31 34  1  0  0  0  0
 31 58  1  0  0  0  0
 32 35  1  0  0  0  0
 32 59  1  0  0  0  0
 33 36  2  0  0  0  0
 33 60  1  0  0  0  0
 34 38  2  0  0  0  0
 34 39  1  0  0  0  0
 35 37  2  0  0  0  0
 35 61  1  0  0  0  0
 36 37  1  0  0  0  0
 36 62  1  0  0  0  0
 38 40  1  0  0  0  0
 38 63  1  0  0  0  0
 39 41  2  0  0  0  0
 39 64  1  0  0  0  0
 40 42  2  0  0  0  0
 40 65  1  0  0  0  0
 41 42  1  0  0  0  0
 41 66  1  0  0  0  0
M  END
> <PUBCHEM_COMPOUND_CID>
44257826

> <PUBCHEM_CONFORMER_RMSD>
1.2

> <PUBCHEM_CONFORMER_DIVERSEORDER>
1
39
182
103
106
32
23
140
201
198
70
68
7
2
116
161
98
48
78
196
40
100
162
191
117
26
189
177
115
12
154
5
124
82
128
20
35
132
127
64
92
43
91
18
63
97
44
86
3
145
111
41
95
67
109
110
79
60
27
184
42
122
188
52
58
193
137
31
62
159
55
47
200
71
194
173
24
49
119
136
118
99
17
167
138
53
190
150
25
126
112
153
180
101
88
83
21
69
168
54
186
30
160
19
171
192
155
85
51
143
56
195
149
15
4
33
29
14
130
22
104
176
94
6
10
146
87
151
107
50
74
120
77
84
166
142
157
141
170
129
197
165
135
158
102
16
90
11
181
148
185
123
81
89
8
164
66
178
144
61
93
73
96
65
169
152
38
46
121
133
76
28
57
34
113
80
183
108
147
174
199
13
36
75
45
105
139
9
72
131
114
163
125
37
179
59
175
172
156
187
134

> <PUBCHEM_MMFF94_PARTIAL_CHARGES>
61
1 -0.56
10 -0.57
11 -0.53
12 -0.53
13 0.28
14 0.28
15 0.28
16 0.28
17 0.56
18 0.28
19 0.08
2 -0.68
20 -0.15
21 -0.15
22 0.08
23 0.71
24 0.09
25 0.08
26 0.47
27 -0.14
28 0.05
29 -0.14
3 -0.68
30 0.03
31 -0.18
32 -0.15
33 -0.15
34 0.03
35 -0.15
36 -0.15
37 0.08
38 -0.15
39 -0.15
4 -0.36
40 -0.15
41 -0.15
42 0.08
5 -0.68
50 0.4
51 0.4
52 0.4
53 0.15
54 0.15
55 0.15
56 0.15
57 0.45
58 0.15
59 0.15
6 -0.43
60 0.15
61 0.15
62 0.15
63 0.15
64 0.15
65 0.15
66 0.15
67 0.45
68 0.45
7 -0.16
8 -0.53
9 -0.57

> <PUBCHEM_EFFECTIVE_ROTOR_COUNT>
9.2

> <PUBCHEM_PHARMACOPHORE_FEATURES>
19
1 1 acceptor
1 10 acceptor
1 11 donor
1 12 donor
1 2 acceptor
1 2 donor
1 3 acceptor
1 3 donor
1 4 acceptor
1 5 acceptor
1 5 donor
1 7 acceptor
1 8 donor
1 9 acceptor
6 1 13 14 15 16 17 rings
6 19 20 21 22 24 25 rings
6 30 32 33 35 36 37 rings
6 34 38 39 40 41 42 rings
6 7 22 24 26 28 29 rings

> <PUBCHEM_HEAVY_ATOM_COUNT>
42

> <PUBCHEM_ATOM_DEF_STEREO_COUNT>
3

> <PUBCHEM_ATOM_UDEF_STEREO_COUNT>
2

> <PUBCHEM_BOND_DEF_STEREO_COUNT>
1

> <PUBCHEM_BOND_UDEF_STEREO_COUNT>
0

> <PUBCHEM_ISOTOPIC_ATOM_COUNT>
0

> <PUBCHEM_COMPONENT_COUNT>
1

> <PUBCHEM_CACTVS_TAUTO_COUNT>
96

> <PUBCHEM_CONFORMER_ID>
02A3522200000001

> <PUBCHEM_MMFF94_ENERGY>
132.0444

> <PUBCHEM_FEATURE_SELFOVERLAP>
96.527

> <PUBCHEM_SHAPE_FINGERPRINT>
10169797 241 16630234913697854683
10190206 1 17488480709502445936
11578080 2 17895490218637926618
1200032 147 18187085100428252702
12107698 1 18117560630493010800
12166972 35 18057045696865758334
12597179 24 17895205453868637210
12788726 201 16774087254148913865
13751561 76 16588024606826036334
14400156 266 17988653948468869774
14931854 50 17561091323212688117
15781502 145 18340484578334079948
18336668 15 17986946350374816426
19309040 13 18048070494827494776
20642791 178 17842848728546175305
22121540 332 15285898266508264662
244849 19 17749976404278531618
27425 322 17822293513046095409
42767 28 17632308907763155012
469060 322 17976560607977219154
513532 50 17313389993627291546
5776283 40 17769933807544467648

> <PUBCHEM_SHAPE_MULTIPOLES>
793.91
15.9
4.07
3
14.54
2.57
2.1
-7.37
-10.05
-6.72
-1.36
-1.09
-0.38
-4.03

> <PUBCHEM_SHAPE_SELFOVERLAP>
1745.961

> <PUBCHEM_SHAPE_VOLUME>
422.9

> <PUBCHEM_COORDINATE_TYPE>
2
5
10

$$$$
