44259385
  -OEChem-03052615073D

 76 80  0     1  0  0  0  0  0999 V2000
   -6.0191    0.9017   -0.0785 O   0  0  0  0  0  0  0  0  0  0  0  0
    3.8132    2.4405    1.1685 O   0  0  0  0  0  0  0  0  0  0  0  0
   -4.4575    0.0794    1.4477 O   0  0  0  0  0  0  0  0  0  0  0  0
    3.0668    0.7654   -0.3314 O   0  0  0  0  0  0  0  0  0  0  0  0
   -8.4569   -2.3591    0.4616 O   0  0  0  0  0  0  0  0  0  0  0  0
   -8.8194   -0.6600   -1.8486 O   0  0  0  0  0  0  0  0  0  0  0  0
    7.3642    1.2373   -0.5605 O   0  0  0  0  0  0  0  0  0  0  0  0
    6.2083    3.7514   -1.3074 O   0  0  0  0  0  0  0  0  0  0  0  0
   -5.6095   -2.4941    1.2063 O   0  0  0  0  0  0  0  0  0  0  0  0
    5.3445   -0.7322    0.1894 O   0  0  0  0  0  0  0  0  0  0  0  0
   -6.3945    2.8031   -2.0275 O   0  0  0  0  0  0  0  0  0  0  0  0
    0.0547   -1.1370    0.6155 O   0  0  0  0  0  0  0  0  0  0  0  0
    1.1019    2.7253   -0.1521 O   0  0  0  0  0  0  0  0  0  0  0  0
   -1.3587    3.4874    0.2944 O   0  0  0  0  0  0  0  0  0  0  0  0
    4.4094   -3.6874   -2.1529 O   0  0  0  0  0  0  0  0  0  0  0  0
    4.8190   -5.2232    0.1277 O   0  0  0  0  0  0  0  0  0  0  0  0
   -7.4018   -1.6148   -0.1493 C   0  0  1  0  0  0  0  0  0  0  0  0
   -8.0011   -0.3332   -0.7286 C   0  0  1  0  0  0  0  0  0  0  0  0
    5.9621    1.5070   -0.5114 C   0  0  2  0  0  0  0  0  0  0  0  0
    5.7766    2.9903   -0.1819 C   0  0  2  0  0  0  0  0  0  0  0  0
   -6.3293   -1.3017    0.8943 C   0  0  2  0  0  0  0  0  0  0  0  0
   -6.8976    0.6302   -1.1720 C   0  0  1  0  0  0  0  0  0  0  0  0
    5.3154    0.6398    0.5678 C   0  0  1  0  0  0  0  0  0  0  0  0
    4.3118    3.3096    0.1449 C   0  0  2  0  0  0  0  0  0  0  0  0
   -5.3345   -0.2637    0.3751 C   0  0  1  0  0  0  0  0  0  0  0  0
    3.8665    1.0581    0.8131 C   0  0  1  0  0  0  0  0  0  0  0  0
   -7.4684    1.9633   -1.6453 C   0  0  0  0  0  0  0  0  0  0  0  0
    4.1365    4.7396    0.6492 C   0  0  0  0  0  0  0  0  0  0  0  0
    1.7698    0.4600    0.0203 C   0  0  0  0  0  0  0  0  0  0  0  0
   -3.1887    0.4452    1.1169 C   0  0  0  0  0  0  0  0  0  0  0  0
   -0.5927    1.1957    0.4398 C   0  0  0  0  0  0  0  0  0  0  0  0
   -0.8866   -0.1430    0.6882 C   0  0  0  0  0  0  0  0  0  0  0  0
    0.7851    1.5667    0.0824 C   0  0  0  0  0  0  0  0  0  0  0  0
    1.3571   -0.7917    0.2913 C   0  0  0  0  0  0  0  0  0  0  0  0
   -2.1862   -0.5208    1.0274 C   0  0  0  0  0  0  0  0  0  0  0  0
   -2.8928    1.7859    0.8673 C   0  0  0  0  0  0  0  0  0  0  0  0
   -1.5939    2.1661    0.5278 C   0  0  0  0  0  0  0  0  0  0  0  0
    2.2649   -1.9519    0.2455 C   0  0  0  0  0  0  0  0  0  0  0  0
    2.9179   -2.2795   -0.9427 C   0  0  0  0  0  0  0  0  0  0  0  0
    2.4708   -2.7225    1.3898 C   0  0  0  0  0  0  0  0  0  0  0  0
    3.7769   -3.3776   -0.9867 C   0  0  0  0  0  0  0  0  0  0  0  0
    3.3296   -3.8208    1.3457 C   0  0  0  0  0  0  0  0  0  0  0  0
    3.9829   -4.1483    0.1575 C   0  0  0  0  0  0  0  0  0  0  0  0
    5.6831   -3.0865   -2.3786 C   0  0  0  0  0  0  0  0  0  0  0  0
   -6.9995   -2.2527   -0.9451 H   0  0  0  0  0  0  0  0  0  0  0  0
   -8.6463    0.1430    0.0199 H   0  0  0  0  0  0  0  0  0  0  0  0
    5.5673    1.2620   -1.5041 H   0  0  0  0  0  0  0  0  0  0  0  0
    6.4217    3.2629    0.6623 H   0  0  0  0  0  0  0  0  0  0  0  0
   -6.7906   -0.9576    1.8276 H   0  0  0  0  0  0  0  0  0  0  0  0
   -6.3082    0.2030   -1.9949 H   0  0  0  0  0  0  0  0  0  0  0  0
    5.8944    0.7395    1.4949 H   0  0  0  0  0  0  0  0  0  0  0  0
    3.6948    3.2043   -0.7562 H   0  0  0  0  0  0  0  0  0  0  0  0
   -4.7482   -0.6871   -0.4536 H   0  0  0  0  0  0  0  0  0  0  0  0
    3.5073    0.4901    1.6823 H   0  0  0  0  0  0  0  0  0  0  0  0
   -8.0116    2.4640   -0.8368 H   0  0  0  0  0  0  0  0  0  0  0  0
   -8.1352    1.8331   -2.5029 H   0  0  0  0  0  0  0  0  0  0  0  0
    4.7039    4.9006    1.5724 H   0  0  0  0  0  0  0  0  0  0  0  0
    3.0852    4.9325    0.8890 H   0  0  0  0  0  0  0  0  0  0  0  0
    4.4626    5.4713   -0.0958 H   0  0  0  0  0  0  0  0  0  0  0  0
   -8.8240   -1.8246    1.1862 H   0  0  0  0  0  0  0  0  0  0  0  0
   -8.2535   -1.0709   -2.5244 H   0  0  0  0  0  0  0  0  0  0  0  0
    7.7398    1.4230    0.3170 H   0  0  0  0  0  0  0  0  0  0  0  0
    5.6248    3.5385   -2.0556 H   0  0  0  0  0  0  0  0  0  0  0  0
   -5.1851   -2.8122    0.3913 H   0  0  0  0  0  0  0  0  0  0  0  0
    5.0477   -1.2492    0.9574 H   0  0  0  0  0  0  0  0  0  0  0  0
   -2.4187   -1.5648    1.2220 H   0  0  0  0  0  0  0  0  0  0  0  0
   -6.7798    3.6464   -2.3206 H   0  0  0  0  0  0  0  0  0  0  0  0
   -3.6769    2.5360    0.9389 H   0  0  0  0  0  0  0  0  0  0  0  0
    2.7603   -1.6916   -1.8445 H   0  0  0  0  0  0  0  0  0  0  0  0
    1.9718   -2.4786    2.3246 H   0  0  0  0  0  0  0  0  0  0  0  0
   -0.4259    3.6337    0.0752 H   0  0  0  0  0  0  0  0  0  0  0  0
    3.4816   -4.4120    2.2448 H   0  0  0  0  0  0  0  0  0  0  0  0
    4.8385   -5.6340    1.0091 H   0  0  0  0  0  0  0  0  0  0  0  0
    6.0896   -3.4857   -3.3118 H   0  0  0  0  0  0  0  0  0  0  0  0
    6.3756   -3.3248   -1.5650 H   0  0  0  0  0  0  0  0  0  0  0  0
    5.5792   -2.0015   -2.4785 H   0  0  0  0  0  0  0  0  0  0  0  0
  1 22  1  0  0  0  0
  1 25  1  0  0  0  0
  2 24  1  0  0  0  0
  2 26  1  0  0  0  0
  3 25  1  0  0  0  0
  3 30  1  0  0  0  0
  4 26  1  0  0  0  0
  4 29  1  0  0  0  0
  5 17  1  0  0  0  0
  5 60  1  0  0  0  0
  6 18  1  0  0  0  0
  6 61  1  0  0  0  0
  7 19  1  0  0  0  0
  7 62  1  0  0  0  0
  8 20  1  0  0  0  0
  8 63  1  0  0  0  0
  9 21  1  0  0  0  0
  9 64  1  0  0  0  0
 10 23  1  0  0  0  0
 10 65  1  0  0  0  0
 11 27  1  0  0  0  0
 11 67  1  0  0  0  0
 12 32  1  0  0  0  0
 12 34  1  0  0  0  0
 13 33  2  0  0  0  0
 14 37  1  0  0  0  0
 14 71  1  0  0  0  0
 15 41  1  0  0  0  0
 15 44  1  0  0  0  0
 16 43  1  0  0  0  0
 16 73  1  0  0  0  0
 17 18  1  0  0  0  0
 17 21  1  0  0  0  0
 17 45  1  0  0  0  0
 18 22  1  0  0  0  0
 18 46  1  0  0  0  0
 19 20  1  0  0  0  0
 19 23  1  0  0  0  0
 19 47  1  0  0  0  0
 20 24  1  0  0  0  0
 20 48  1  0  0  0  0
 21 25  1  0  0  0  0
 21 49  1  0  0  0  0
 22 27  1  0  0  0  0
 22 50  1  0  0  0  0
 23 26  1  0  0  0  0
 23 51  1  0  0  0  0
 24 28  1  0  0  0  0
 24 52  1  0  0  0  0
 25 53  1  0  0  0  0
 26 54  1  0  0  0  0
 27 55  1  0  0  0  0
 27 56  1  0  0  0  0
 28 57  1  0  0  0  0
 28 58  1  0  0  0  0
 28 59  1  0  0  0  0
 29 33  1  0  0  0  0
 29 34  2  0  0  0  0
 30 35  1  0  0  0  0
 30 36  2  0  0  0  0
 31 32  1  0  0  0  0
 31 33  1  0  0  0  0
 31 37  2  0  0  0  0
 32 35  2  0  0  0  0
 34 38  1  0  0  0  0
 35 66  1  0  0  0  0
 36 37  1  0  0  0  0
 36 68  1  0  0  0  0
 38 39  2  0  0  0  0
 38 40  1  0  0  0  0
 39 41  1  0  0  0  0
 39 69  1  0  0  0  0
 40 42  2  0  0  0  0
 40 70  1  0  0  0  0
 41 43  2  0  0  0  0
 42 43  1  0  0  0  0
 42 72  1  0  0  0  0
 44 74  1  0  0  0  0
 44 75  1  0  0  0  0
 44 76  1  0  0  0  0
M  END
> <PUBCHEM_COMPOUND_CID>
44259385

> <PUBCHEM_CONFORMER_RMSD>
1.2

> <PUBCHEM_CONFORMER_DIVERSEORDER>
1
110
244
232
226
209
79
130
99
243
124
137
171
118
64
139
43
71
170
144
205
62
34
68
182
178
164
216
53
101
210
61
132
121
92
29
70
229
58
212
103
75
115
105
211
85
228
96
235
147
214
159
161
91
177
233
192
83
42
155
227
135
14
116
40
201
98
167
100
109
27
65
28
37
154
87
16
122
181
168
47
20
49
54
215
117
174
86
190
213
223
107
158
230
57
219
149
125
6
194
241
113
51
191
45
203
106
97
39
19
176
112
172
120
84
189
218
175
82
222
30
114
207
231
221
77
236
80
63
24
38
90
129
66
197
76
21
22
72
17
153
56
160
173
166
200
162
131
234
41
184
193
2
208
31
199
224
198
133
128
26
4
157
123
36
15
138
220
44
196
81
111
8
7
152
73
169
55
136
95
48
150
23
119
187
126
94
32
25
134
10
151
89
142
18
146
185
140
239
165
50
5
60
59
195
188
104
148
67
204
179
127
108
46
202
78
9
33
183
206
93
163
69
180
35
237
186
52
13
88
145
217
156
3
240
74
11
102
238
12
225
242
143
141

> <PUBCHEM_MMFF94_PARTIAL_CHARGES>
57
1 -0.56
10 -0.68
11 -0.68
12 -0.16
13 -0.57
14 -0.53
15 -0.36
16 -0.53
17 0.28
18 0.28
19 0.28
2 -0.56
20 0.28
21 0.28
22 0.28
23 0.28
24 0.28
25 0.56
26 0.56
27 0.28
29 0.09
3 -0.36
30 0.08
31 0.09
32 0.08
33 0.47
34 0.05
35 -0.15
36 -0.15
37 0.08
38 0.03
39 -0.15
4 -0.36
40 -0.15
41 0.08
42 -0.15
43 0.08
44 0.28
5 -0.68
6 -0.68
60 0.4
61 0.4
62 0.4
63 0.4
64 0.4
65 0.4
66 0.15
67 0.4
68 0.15
69 0.15
7 -0.68
70 0.15
71 0.45
72 0.15
73 0.45
8 -0.68
9 -0.68

> <PUBCHEM_EFFECTIVE_ROTOR_COUNT>
9.4

> <PUBCHEM_PHARMACOPHORE_FEATURES>
28
1 1 acceptor
1 10 acceptor
1 10 donor
1 11 acceptor
1 11 donor
1 12 acceptor
1 13 acceptor
1 14 donor
1 15 acceptor
1 16 donor
1 2 acceptor
1 3 acceptor
1 4 acceptor
1 5 acceptor
1 5 donor
1 6 acceptor
1 6 donor
1 7 acceptor
1 7 donor
1 8 acceptor
1 8 donor
1 9 acceptor
1 9 donor
6 1 17 18 21 22 25 rings
6 12 29 31 32 33 34 rings
6 2 19 20 23 24 26 rings
6 30 31 32 35 36 37 rings
6 38 39 40 41 42 43 rings

> <PUBCHEM_HEAVY_ATOM_COUNT>
44

> <PUBCHEM_ATOM_DEF_STEREO_COUNT>
6

> <PUBCHEM_ATOM_UDEF_STEREO_COUNT>
4

> <PUBCHEM_BOND_DEF_STEREO_COUNT>
0

> <PUBCHEM_BOND_UDEF_STEREO_COUNT>
0

> <PUBCHEM_ISOTOPIC_ATOM_COUNT>
0

> <PUBCHEM_COMPONENT_COUNT>
1

> <PUBCHEM_CACTVS_TAUTO_COUNT>
29

> <PUBCHEM_CONFORMER_ID>
02A3583900000001

> <PUBCHEM_MMFF94_ENERGY>
157.4901

> <PUBCHEM_FEATURE_SELFOVERLAP>
142.28

> <PUBCHEM_SHAPE_FINGERPRINT>
10050765 1 18339083662195071385
11062273 19 18267870480644783564
11135926 11 18340474681642162367
11181472 205 18342178835278647073
11204353 107 18338241586507126891
11475781 23 17313097528383047935
11719270 70 18336825402433535752
11963148 33 18340201989695145995
12440610 7 17967823789851833275
12522641 126 18335993004234713430
13540713 5 18057900060344919641
1361 4 18341327895009831263
13692114 37 18270394031592902370
13782708 43 17559949918869779331
13811026 1 18408317766217533563
14118638 360 18272937124672703497
14150023 79 18335984267743900938
15064986 266 18410297974818748121
15082195 135 18340198613861108913
15328829 1 17703784851280532037
15351334 14 18334286566013913575
15890870 6 18337396067214395836
16067689 302 18340493361162197499
16664035 7 18118676627038725442
19841028 212 18413109447025284755
22311459 1 18340210807378692345
23522609 53 17702689690955735649
23559900 14 18337672988422667961
24771750 20 17828493801367023269
255183 451 17986119509331016246
4073 2 18114181978054517955
44880568 143 18334572396620679461
45266715 3 18187085061294051626
6376802 90 17967252018736758059
6700243 42 17123976941613373358
9831232 110 18410292467599938854

> <PUBCHEM_SHAPE_MULTIPOLES>
811.59
23.39
5.97
1.52
44.7
1.8
-0.67
1.38
-9.26
-12.79
-0.59
0.49
0.66
2.61

> <PUBCHEM_SHAPE_SELFOVERLAP>
1763.337

> <PUBCHEM_SHAPE_VOLUME>
436.7

> <PUBCHEM_COORDINATE_TYPE>
2
5
10

$$$$
