44257887
  -OEChem-03052615073D

 56 59  0     1  0  0  0  0  0999 V2000
   -3.0438   -0.3869   -0.5780 O   0  0  0  0  0  0  0  0  0  0  0  0
   -2.7534    1.9367   -0.4234 O   0  0  0  0  0  0  0  0  0  0  0  0
   -6.4459   -0.2389    1.7791 O   0  0  0  0  0  0  0  0  0  0  0  0
   -5.0151   -2.7401    1.4306 O   0  0  0  0  0  0  0  0  0  0  0  0
   -5.4184    1.1287   -0.4278 O   0  0  0  0  0  0  0  0  0  0  0  0
   -3.4373   -3.8712   -0.4381 O   0  0  0  0  0  0  0  0  0  0  0  0
   -2.9281   -2.3846   -2.1314 O   0  0  0  0  0  0  0  0  0  0  0  0
    1.7888    0.5941   -0.0065 O   0  0  0  0  0  0  0  0  0  0  0  0
    0.6269    5.2820   -0.4172 O   0  0  0  0  0  0  0  0  0  0  0  0
    3.1037    4.4460   -0.1896 O   0  0  0  0  0  0  0  0  0  0  0  0
    6.5020   -3.5716    0.6076 O   0  0  0  0  0  0  0  0  0  0  0  0
   -5.0585   -0.3301    1.4679 C   0  0  1  0  0  0  0  0  0  0  0  0
   -4.8146   -1.5821    0.6216 C   0  0  1  0  0  0  0  0  0  0  0  0
   -4.6013    0.9275    0.7295 C   0  0  1  0  0  0  0  0  0  0  0  0
   -3.3805   -1.5982    0.0945 C   0  0  1  0  0  0  0  0  0  0  0  0
   -3.1533    0.7584    0.2697 C   0  0  1  0  0  0  0  0  0  0  0  0
   -3.2168   -2.6349   -0.9690 C   0  0  0  0  0  0  0  0  0  0  0  0
   -1.4277    2.2720   -0.3524 C   0  0  0  0  0  0  0  0  0  0  0  0
   -0.4630    1.2736   -0.2142 C   0  0  0  0  0  0  0  0  0  0  0  0
   -1.0442    3.6123   -0.4186 C   0  0  0  0  0  0  0  0  0  0  0  0
    0.8868    1.6188   -0.1422 C   0  0  0  0  0  0  0  0  0  0  0  0
    1.2679    2.9579   -0.2090 C   0  0  0  0  0  0  0  0  0  0  0  0
    0.3052    3.9604   -0.3473 C   0  0  0  0  0  0  0  0  0  0  0  0
   -3.3120   -4.9646   -1.3530 C   0  0  0  0  0  0  0  0  0  0  0  0
    2.6981    3.2933   -0.1327 C   0  0  0  0  0  0  0  0  0  0  0  0
    3.1369    0.9075    0.0763 C   0  0  0  0  0  0  0  0  0  0  0  0
    3.6278    2.1557    0.0168 C   0  0  0  0  0  0  0  0  0  0  0  0
    4.0189   -0.2687    0.2163 C   0  0  0  0  0  0  0  0  0  0  0  0
    4.8533   -0.3862    1.3280 C   0  0  0  0  0  0  0  0  0  0  0  0
    4.0185   -1.2614   -0.7636 C   0  0  0  0  0  0  0  0  0  0  0  0
    5.6875   -1.4963    1.4596 C   0  0  0  0  0  0  0  0  0  0  0  0
    4.8528   -2.3715   -0.6321 C   0  0  0  0  0  0  0  0  0  0  0  0
    5.6872   -2.4889    0.4794 C   0  0  0  0  0  0  0  0  0  0  0  0
    6.4514   -4.5486   -0.4311 C   0  0  0  0  0  0  0  0  0  0  0  0
   -4.5234   -0.4235    2.4211 H   0  0  0  0  0  0  0  0  0  0  0  0
   -5.5466   -1.6279   -0.1944 H   0  0  0  0  0  0  0  0  0  0  0  0
   -4.7235    1.8190    1.3533 H   0  0  0  0  0  0  0  0  0  0  0  0
   -2.6415   -1.7957    0.8810 H   0  0  0  0  0  0  0  0  0  0  0  0
   -2.5387    0.6138    1.1709 H   0  0  0  0  0  0  0  0  0  0  0  0
   -6.5744    0.5672    2.3076 H   0  0  0  0  0  0  0  0  0  0  0  0
   -4.9754   -3.5190    0.8506 H   0  0  0  0  0  0  0  0  0  0  0  0
   -5.1951    0.4462   -1.0828 H   0  0  0  0  0  0  0  0  0  0  0  0
   -0.7119    0.2184   -0.1807 H   0  0  0  0  0  0  0  0  0  0  0  0
   -1.8009    4.3858   -0.5262 H   0  0  0  0  0  0  0  0  0  0  0  0
   -3.5116   -5.8898   -0.8060 H   0  0  0  0  0  0  0  0  0  0  0  0
   -2.2955   -5.0067   -1.7558 H   0  0  0  0  0  0  0  0  0  0  0  0
   -4.0447   -4.8685   -2.1600 H   0  0  0  0  0  0  0  0  0  0  0  0
    4.6883    2.3753    0.0714 H   0  0  0  0  0  0  0  0  0  0  0  0
    1.5868    5.4024   -0.3541 H   0  0  0  0  0  0  0  0  0  0  0  0
    4.8644    0.3746    2.1048 H   0  0  0  0  0  0  0  0  0  0  0  0
    3.3754   -1.1828   -1.6370 H   0  0  0  0  0  0  0  0  0  0  0  0
    6.3348   -1.5830    2.3280 H   0  0  0  0  0  0  0  0  0  0  0  0
    4.8029   -3.1044   -1.4300 H   0  0  0  0  0  0  0  0  0  0  0  0
    5.4630   -5.0161   -0.4960 H   0  0  0  0  0  0  0  0  0  0  0  0
    6.7781   -4.1332   -1.3904 H   0  0  0  0  0  0  0  0  0  0  0  0
    7.1618   -5.3387   -0.1665 H   0  0  0  0  0  0  0  0  0  0  0  0
  1 15  1  0  0  0  0
  1 16  1  0  0  0  0
  2 16  1  0  0  0  0
  2 18  1  0  0  0  0
  3 12  1  0  0  0  0
  3 40  1  0  0  0  0
  4 13  1  0  0  0  0
  4 41  1  0  0  0  0
  5 14  1  0  0  0  0
  5 42  1  0  0  0  0
  6 17  1  0  0  0  0
  6 24  1  0  0  0  0
  7 17  2  0  0  0  0
  8 21  1  0  0  0  0
  8 26  1  0  0  0  0
  9 23  1  0  0  0  0
  9 49  1  0  0  0  0
 10 25  2  0  0  0  0
 11 33  1  0  0  0  0
 11 34  1  0  0  0  0
 12 13  1  0  0  0  0
 12 14  1  0  0  0  0
 12 35  1  0  0  0  0
 13 15  1  0  0  0  0
 13 36  1  0  0  0  0
 14 16  1  0  0  0  0
 14 37  1  0  0  0  0
 15 17  1  0  0  0  0
 15 38  1  0  0  0  0
 16 39  1  0  0  0  0
 18 19  1  0  0  0  0
 18 20  2  0  0  0  0
 19 21  2  0  0  0  0
 19 43  1  0  0  0  0
 20 23  1  0  0  0  0
 20 44  1  0  0  0  0
 21 22  1  0  0  0  0
 22 23  2  0  0  0  0
 22 25  1  0  0  0  0
 24 45  1  0  0  0  0
 24 46  1  0  0  0  0
 24 47  1  0  0  0  0
 25 27  1  0  0  0  0
 26 27  2  0  0  0  0
 26 28  1  0  0  0  0
 27 48  1  0  0  0  0
 28 29  2  0  0  0  0
 28 30  1  0  0  0  0
 29 31  1  0  0  0  0
 29 50  1  0  0  0  0
 30 32  2  0  0  0  0
 30 51  1  0  0  0  0
 31 33  2  0  0  0  0
 31 52  1  0  0  0  0
 32 33  1  0  0  0  0
 32 53  1  0  0  0  0
 34 54  1  0  0  0  0
 34 55  1  0  0  0  0
 34 56  1  0  0  0  0
M  END
> <PUBCHEM_COMPOUND_CID>
44257887

> <PUBCHEM_CONFORMER_RMSD>
1

> <PUBCHEM_CONFORMER_DIVERSEORDER>
2
68
149
128
110
14
117
44
28
65
127
76
10
111
66
150
99
74
112
62
7
152
72
63
82
35
137
132
144
58
107
19
30
102
38
8
49
90
97
12
151
139
54
78
141
123
26
42
9
146
11
22
134
4
114
86
40
124
55
67
133
32
96
113
60
15
20
84
23
21
95
48
3
46
77
147
37
45
104
6
41
148
56
130
53
126
140
122
106
71
70
5
1
83
64
57
85
103
121
138
87
13
29
25
80
88
51
116
92
101
33
43
47
79
119
81
120
105
27
91
129
39
61
145
109
52
89
34
17
75
36
136
135
73
125
100
115
131
18
93
118
59
16
94
108
50
31
69
143
98
24
142

> <PUBCHEM_MMFF94_PARTIAL_CHARGES>
45
1 -0.56
10 -0.57
11 -0.36
12 0.28
13 0.28
14 0.28
15 0.34
16 0.56
17 0.66
18 0.08
19 -0.15
2 -0.36
20 -0.15
21 0.08
22 0.09
23 0.08
24 0.28
25 0.47
26 0.05
27 -0.14
28 0.03
29 -0.15
3 -0.68
30 -0.15
31 -0.15
32 -0.15
33 0.08
34 0.28
4 -0.68
40 0.4
41 0.4
42 0.4
43 0.15
44 0.15
48 0.15
49 0.45
5 -0.68
50 0.15
51 0.15
52 0.15
53 0.15
6 -0.43
7 -0.57
8 -0.16
9 -0.53

> <PUBCHEM_EFFECTIVE_ROTOR_COUNT>
7.2

> <PUBCHEM_PHARMACOPHORE_FEATURES>
17
1 1 acceptor
1 10 acceptor
1 11 acceptor
1 2 acceptor
1 3 acceptor
1 3 donor
1 4 acceptor
1 4 donor
1 5 acceptor
1 5 donor
1 7 acceptor
1 8 acceptor
1 9 donor
6 1 12 13 14 15 16 rings
6 18 19 20 21 22 23 rings
6 28 29 30 31 32 33 rings
6 8 21 22 25 26 27 rings

> <PUBCHEM_HEAVY_ATOM_COUNT>
34

> <PUBCHEM_ATOM_DEF_STEREO_COUNT>
3

> <PUBCHEM_ATOM_UDEF_STEREO_COUNT>
2

> <PUBCHEM_BOND_DEF_STEREO_COUNT>
0

> <PUBCHEM_BOND_UDEF_STEREO_COUNT>
0

> <PUBCHEM_ISOTOPIC_ATOM_COUNT>
0

> <PUBCHEM_COMPONENT_COUNT>
1

> <PUBCHEM_CACTVS_TAUTO_COUNT>
5

> <PUBCHEM_CONFORMER_ID>
02A3525F00000002

> <PUBCHEM_MMFF94_ENERGY>
117.6623

> <PUBCHEM_FEATURE_SELFOVERLAP>
86.387

> <PUBCHEM_SHAPE_FINGERPRINT>
10010297 198 18193000537062219340
10254770 206 18192694683819877610
10290309 65 16824745861072732988
10462674 296 18270385200840072166
10622 236 17985248919127989855
10928967 22 18335709342423628266
11135926 11 18192706963564036612
11136131 41 18120076545864301840
117089 54 18261967309367705427
11963148 33 18336260232857799794
12107183 9 18341344335801242713
12174731 88 18338229375724706498
12422481 6 17917991646701072686
13690498 29 18115311064542270460
14117953 113 18268708308178315869
14279260 333 17824541873209285930
14420673 8 18335427816297492619
14866123 147 18122629344970071889
15042514 8 18264770952433636952
15250474 111 17982168126063866887
15320291 9 18125434460999062774
15320467 1 18194962937885583542
15684393 108 17386585574053859090
16110190 28 18341896302742241034
17492 89 18337112379563896321
19053607 189 9439126390592085462
19246450 95 18054524508524868801
19301676 85 18337660954563329023
19303781 99 18040988532528474474
19311894 1 18410285913390869371
19319366 153 16972789096939443213
21585480 29 18057581344049416378
229767 44 18272092643560174571
23379529 103 18411418367722883812
23559900 14 18408878529653403624
32027 91 18411411800243374885
3383291 50 18267855113199096285
437795 96 18127126364670673902
44880168 125 18058721399646623150
463206 1 18334296461386805050
50009960 94 17897420978320586770
50080093 196 17835505399823118150
56633871 153 18412825785250278403
6058803 2 18054237793745928801
613672 6 18192687017772187116
7970288 3 18263926532272810498

> <PUBCHEM_SHAPE_MULTIPOLES>
635.14
15.77
7.23
1.23
5.89
0.23
0.15
-19.24
5.23
3.26
-2.5
-0.97
-0.97
-0.9

> <PUBCHEM_SHAPE_SELFOVERLAP>
1388.713

> <PUBCHEM_SHAPE_VOLUME>
340.8

> <PUBCHEM_COORDINATE_TYPE>
2
5
10

$$$$
