44587062
  -OEChem-03052615073D

100102  0     1  0  0  0  0  0999 V2000
    4.3856    1.0936   -0.4809 O   0  0  0  0  0  0  0  0  0  0  0  0
   -3.0143   -1.4558   -2.2715 O   0  0  0  0  0  0  0  0  0  0  0  0
   -0.8770   -0.3807   -2.0489 O   0  0  0  0  0  0  0  0  0  0  0  0
    5.3773   -3.1899    1.0477 O   0  0  0  0  0  0  0  0  0  0  0  0
   -2.9195   -3.7215    1.7885 O   0  0  0  0  0  0  0  0  0  0  0  0
    0.9630   -2.1498   -0.4104 O   0  0  0  0  0  0  0  0  0  0  0  0
   -4.0525    0.9041    1.6779 O   0  0  0  0  0  0  0  0  0  0  0  0
   -2.0605    3.3228    0.7267 O   0  0  0  0  0  0  0  0  0  0  0  0
    2.5438    2.3279   -0.1030 O   0  0  0  0  0  0  0  0  0  0  0  0
    0.8043    5.0972    0.6431 O   0  0  0  0  0  0  0  0  0  0  0  0
    1.8877    0.1168   -1.7335 C   0  0  2  0  0  0  0  0  0  0  0  0
   -2.9570    1.1524   -0.8683 C   0  0  2  0  0  0  0  0  0  0  0  0
    4.6732   -0.8854    0.8917 C   0  0  0  0  0  0  0  0  0  0  0  0
   -3.6276   -2.7033   -0.2838 C   0  0  0  0  0  0  0  0  0  0  0  0
    3.0892   -2.9292    0.3924 C   0  0  0  0  0  0  0  0  0  0  0  0
   -3.5329   -1.4177    2.0124 C   0  0  0  0  0  0  0  0  0  0  0  0
    2.7140   -0.5992   -0.7028 C   0  0  0  0  0  0  0  0  0  0  0  0
   -3.2805   -0.1852   -0.2650 C   0  0  0  0  0  0  0  0  0  0  0  0
    2.8121    0.8832   -2.7449 C   0  0  0  0  0  0  0  0  0  0  0  0
   -3.4103    1.2490   -2.3575 C   0  0  0  0  0  0  0  0  0  0  0  0
    0.8436    0.9662   -1.0816 C   0  0  0  0  0  0  0  0  0  0  0  0
   -1.4820    1.4686   -0.6625 C   0  0  0  0  0  0  0  0  0  0  0  0
    3.8638   -0.1523   -0.1630 C   0  0  0  0  0  0  0  0  0  0  0  0
   -3.2763   -1.3663   -0.9118 C   0  0  0  0  0  0  0  0  0  0  0  0
    4.4685   -2.4010    0.7678 C   0  0  0  0  0  0  0  0  0  0  0  0
   -3.2949   -2.6940    1.2141 C   0  0  0  0  0  0  0  0  0  0  0  0
    2.1584   -1.9030   -0.2354 C   0  0  0  0  0  0  0  0  0  0  0  0
   -3.6715   -0.1554    1.1751 C   0  0  0  0  0  0  0  0  0  0  0  0
   -0.5076    0.6766   -1.2700 C   0  0  0  0  0  0  0  0  0  0  0  0
   -1.1048    2.5502    0.1334 C   0  0  0  0  0  0  0  0  0  0  0  0
    1.2209    2.0478   -0.2856 C   0  0  0  0  0  0  0  0  0  0  0  0
    6.1837   -0.6018    0.7241 C   0  0  0  0  0  0  0  0  0  0  0  0
    4.2376   -0.4366    2.2935 C   0  0  0  0  0  0  0  0  0  0  0  0
   -2.8213   -3.8497   -0.9361 C   0  0  0  0  0  0  0  0  0  0  0  0
   -5.1255   -2.9889   -0.4610 C   0  0  0  0  0  0  0  0  0  0  0  0
    3.2732   -4.0517   -0.6443 C   0  0  0  0  0  0  0  0  0  0  0  0
    2.4311   -3.4972    1.6576 C   0  0  0  0  0  0  0  0  0  0  0  0
   -2.3246   -1.2017    2.9407 C   0  0  0  0  0  0  0  0  0  0  0  0
   -4.8033   -1.6060    2.8533 C   0  0  0  0  0  0  0  0  0  0  0  0
    0.2465    2.8398    0.3219 C   0  0  0  0  0  0  0  0  0  0  0  0
    3.8729   -0.0514   -3.3453 C   0  0  0  0  0  0  0  0  0  0  0  0
    2.0240    1.5261   -3.8965 C   0  0  0  0  0  0  0  0  0  0  0  0
   -3.1675    2.6513   -2.9364 C   0  0  0  0  0  0  0  0  0  0  0  0
   -4.8987    0.9072   -2.5220 C   0  0  0  0  0  0  0  0  0  0  0  0
    0.6406    3.9717    1.1542 C   0  0  0  0  0  0  0  0  0  0  0  0
    0.8758    3.7987    2.6709 C   0  0  0  0  0  0  0  0  0  0  0  0
    0.7095    2.3363    3.0866 C   0  0  0  0  0  0  0  0  0  0  0  0
   -0.0905    4.6872    3.4482 C   0  0  0  0  0  0  0  0  0  0  0  0
    1.4315   -0.6531   -2.3667 H   0  0  0  0  0  0  0  0  0  0  0  0
   -3.5811    1.9079   -0.3804 H   0  0  0  0  0  0  0  0  0  0  0  0
    3.3262    1.7335   -2.2937 H   0  0  0  0  0  0  0  0  0  0  0  0
   -2.8361    0.6014   -3.0227 H   0  0  0  0  0  0  0  0  0  0  0  0
    6.7814   -1.1893    1.4318 H   0  0  0  0  0  0  0  0  0  0  0  0
    6.4454    0.4457    0.9076 H   0  0  0  0  0  0  0  0  0  0  0  0
    6.5254   -0.8659   -0.2841 H   0  0  0  0  0  0  0  0  0  0  0  0
    4.7359   -1.0287    3.0701 H   0  0  0  0  0  0  0  0  0  0  0  0
    3.1583   -0.5536    2.4413 H   0  0  0  0  0  0  0  0  0  0  0  0
    4.4772    0.6180    2.4723 H   0  0  0  0  0  0  0  0  0  0  0  0
   -3.0086   -4.8063   -0.4329 H   0  0  0  0  0  0  0  0  0  0  0  0
   -1.7430   -3.6586   -0.8747 H   0  0  0  0  0  0  0  0  0  0  0  0
   -3.0783   -4.0093   -1.9886 H   0  0  0  0  0  0  0  0  0  0  0  0
   -5.3873   -3.1278   -1.5162 H   0  0  0  0  0  0  0  0  0  0  0  0
   -5.7446   -2.1703   -0.0777 H   0  0  0  0  0  0  0  0  0  0  0  0
   -5.4203   -3.8966    0.0786 H   0  0  0  0  0  0  0  0  0  0  0  0
    3.8675   -4.8807   -0.2432 H   0  0  0  0  0  0  0  0  0  0  0  0
    3.7889   -3.6789   -1.5376 H   0  0  0  0  0  0  0  0  0  0  0  0
    2.3101   -4.4620   -0.9694 H   0  0  0  0  0  0  0  0  0  0  0  0
    3.0826   -4.2212    2.1600 H   0  0  0  0  0  0  0  0  0  0  0  0
    1.4867   -4.0037    1.4270 H   0  0  0  0  0  0  0  0  0  0  0  0
    2.2040   -2.7045    2.3787 H   0  0  0  0  0  0  0  0  0  0  0  0
   -2.1992   -2.0332    3.6436 H   0  0  0  0  0  0  0  0  0  0  0  0
   -2.4273   -0.2827    3.5294 H   0  0  0  0  0  0  0  0  0  0  0  0
   -1.3965   -1.1170    2.3621 H   0  0  0  0  0  0  0  0  0  0  0  0
   -4.7580   -2.5240    3.4504 H   0  0  0  0  0  0  0  0  0  0  0  0
   -5.6946   -1.6704    2.2202 H   0  0  0  0  0  0  0  0  0  0  0  0
   -4.9567   -0.7683    3.5432 H   0  0  0  0  0  0  0  0  0  0  0  0
    3.4042   -0.9225   -3.8172 H   0  0  0  0  0  0  0  0  0  0  0  0
    4.4420    0.4708   -4.1234 H   0  0  0  0  0  0  0  0  0  0  0  0
    4.6091   -0.4157   -2.6267 H   0  0  0  0  0  0  0  0  0  0  0  0
    1.4581    0.7727   -4.4551 H   0  0  0  0  0  0  0  0  0  0  0  0
    2.6963    2.0322   -4.5980 H   0  0  0  0  0  0  0  0  0  0  0  0
    1.3172    2.2752   -3.5256 H   0  0  0  0  0  0  0  0  0  0  0  0
   -3.6895    3.4168   -2.3521 H   0  0  0  0  0  0  0  0  0  0  0  0
   -3.5269    2.7147   -3.9695 H   0  0  0  0  0  0  0  0  0  0  0  0
   -2.1020    2.9014   -2.9504 H   0  0  0  0  0  0  0  0  0  0  0  0
   -5.5194    1.5790   -1.9179 H   0  0  0  0  0  0  0  0  0  0  0  0
   -5.2038    1.0360   -3.5670 H   0  0  0  0  0  0  0  0  0  0  0  0
   -5.1608   -0.1161   -2.2492 H   0  0  0  0  0  0  0  0  0  0  0  0
    4.8098    1.4622    0.3109 H   0  0  0  0  0  0  0  0  0  0  0  0
   -3.5569   -2.1690   -2.6451 H   0  0  0  0  0  0  0  0  0  0  0  0
   -0.3479   -1.1545   -1.7930 H   0  0  0  0  0  0  0  0  0  0  0  0
    1.9095    4.1034    2.8732 H   0  0  0  0  0  0  0  0  0  0  0  0
   -2.7098    2.7370    1.1508 H   0  0  0  0  0  0  0  0  0  0  0  0
    2.6588    3.1100    0.4596 H   0  0  0  0  0  0  0  0  0  0  0  0
   -0.3043    1.9638    2.9055 H   0  0  0  0  0  0  0  0  0  0  0  0
    1.4185    1.6831    2.5680 H   0  0  0  0  0  0  0  0  0  0  0  0
    0.9059    2.2276    4.1594 H   0  0  0  0  0  0  0  0  0  0  0  0
   -1.1324    4.4191    3.2423 H   0  0  0  0  0  0  0  0  0  0  0  0
    0.0380    5.7396    3.1735 H   0  0  0  0  0  0  0  0  0  0  0  0
    0.0788    4.5983    4.5263 H   0  0  0  0  0  0  0  0  0  0  0  0
  1 23  1  0  0  0  0
  1 89  1  0  0  0  0
  2 24  1  0  0  0  0
  2 90  1  0  0  0  0
  3 29  1  0  0  0  0
  3 91  1  0  0  0  0
  4 25  2  0  0  0  0
  5 26  2  0  0  0  0
  6 27  2  0  0  0  0
  7 28  2  0  0  0  0
  8 30  1  0  0  0  0
  8 93  1  0  0  0  0
  9 31  1  0  0  0  0
  9 94  1  0  0  0  0
 10 45  2  0  0  0  0
 11 17  1  0  0  0  0
 11 19  1  0  0  0  0
 11 21  1  0  0  0  0
 11 49  1  0  0  0  0
 12 18  1  0  0  0  0
 12 20  1  0  0  0  0
 12 22  1  0  0  0  0
 12 50  1  0  0  0  0
 13 23  1  0  0  0  0
 13 25  1  0  0  0  0
 13 32  1  0  0  0  0
 13 33  1  0  0  0  0
 14 24  1  0  0  0  0
 14 26  1  0  0  0  0
 14 34  1  0  0  0  0
 14 35  1  0  0  0  0
 15 25  1  0  0  0  0
 15 27  1  0  0  0  0
 15 36  1  0  0  0  0
 15 37  1  0  0  0  0
 16 26  1  0  0  0  0
 16 28  1  0  0  0  0
 16 38  1  0  0  0  0
 16 39  1  0  0  0  0
 17 23  2  0  0  0  0
 17 27  1  0  0  0  0
 18 24  2  0  0  0  0
 18 28  1  0  0  0  0
 19 41  1  0  0  0  0
 19 42  1  0  0  0  0
 19 51  1  0  0  0  0
 20 43  1  0  0  0  0
 20 44  1  0  0  0  0
 20 52  1  0  0  0  0
 21 29  2  0  0  0  0
 21 31  1  0  0  0  0
 22 29  1  0  0  0  0
 22 30  2  0  0  0  0
 30 40  1  0  0  0  0
 31 40  2  0  0  0  0
 32 53  1  0  0  0  0
 32 54  1  0  0  0  0
 32 55  1  0  0  0  0
 33 56  1  0  0  0  0
 33 57  1  0  0  0  0
 33 58  1  0  0  0  0
 34 59  1  0  0  0  0
 34 60  1  0  0  0  0
 34 61  1  0  0  0  0
 35 62  1  0  0  0  0
 35 63  1  0  0  0  0
 35 64  1  0  0  0  0
 36 65  1  0  0  0  0
 36 66  1  0  0  0  0
 36 67  1  0  0  0  0
 37 68  1  0  0  0  0
 37 69  1  0  0  0  0
 37 70  1  0  0  0  0
 38 71  1  0  0  0  0
 38 72  1  0  0  0  0
 38 73  1  0  0  0  0
 39 74  1  0  0  0  0
 39 75  1  0  0  0  0
 39 76  1  0  0  0  0
 40 45  1  0  0  0  0
 41 77  1  0  0  0  0
 41 78  1  0  0  0  0
 41 79  1  0  0  0  0
 42 80  1  0  0  0  0
 42 81  1  0  0  0  0
 42 82  1  0  0  0  0
 43 83  1  0  0  0  0
 43 84  1  0  0  0  0
 43 85  1  0  0  0  0
 44 86  1  0  0  0  0
 44 87  1  0  0  0  0
 44 88  1  0  0  0  0
 45 46  1  0  0  0  0
 46 47  1  0  0  0  0
 46 48  1  0  0  0  0
 46 92  1  0  0  0  0
 47 95  1  0  0  0  0
 47 96  1  0  0  0  0
 47 97  1  0  0  0  0
 48 98  1  0  0  0  0
 48 99  1  0  0  0  0
 48100  1  0  0  0  0
M  END
> <PUBCHEM_COMPOUND_CID>
44587062

> <PUBCHEM_CONFORMER_RMSD>
1.2

> <PUBCHEM_CONFORMER_DIVERSEORDER>
8
23
46
45
16
22
41
11
38
36
35
44
9
52
39
43
34
28
32
50
51
20
24
30
33
31
21
18
26
29
15
10
2
47
27
48
7
49
13
19
42
4
37
5
17
12
40
14
6
1
25
3

> <PUBCHEM_MMFF94_PARTIAL_CHARGES>
37
1 -0.53
10 -0.57
11 0.28
12 0.28
13 0.2
14 0.2
15 0.12
16 0.12
17 -0.12
18 -0.12
2 -0.53
21 -0.14
22 -0.14
23 -0.06
24 -0.06
25 0.45
26 0.45
27 0.49
28 0.49
29 0.08
3 -0.53
30 0.08
31 0.08
4 -0.57
40 0.09
45 0.42
46 0.06
5 -0.57
6 -0.57
7 -0.57
8 -0.53
89 0.45
9 -0.53
90 0.45
91 0.45
93 0.45
94 0.45

> <PUBCHEM_EFFECTIVE_ROTOR_COUNT>
8.8

> <PUBCHEM_PHARMACOPHORE_FEATURES>
20
1 1 donor
1 10 acceptor
1 2 donor
1 3 donor
1 4 acceptor
1 5 acceptor
1 6 acceptor
1 7 acceptor
1 8 donor
1 9 donor
3 13 32 33 hydrophobe
3 14 34 35 hydrophobe
3 15 36 37 hydrophobe
3 16 38 39 hydrophobe
3 19 41 42 hydrophobe
3 20 43 44 hydrophobe
3 46 47 48 hydrophobe
6 13 15 17 23 25 27 rings
6 14 16 18 24 26 28 rings
6 21 22 29 30 31 40 rings

> <PUBCHEM_HEAVY_ATOM_COUNT>
48

> <PUBCHEM_ATOM_DEF_STEREO_COUNT>
2

> <PUBCHEM_ATOM_UDEF_STEREO_COUNT>
0

> <PUBCHEM_BOND_DEF_STEREO_COUNT>
0

> <PUBCHEM_BOND_UDEF_STEREO_COUNT>
0

> <PUBCHEM_ISOTOPIC_ATOM_COUNT>
0

> <PUBCHEM_COMPONENT_COUNT>
1

> <PUBCHEM_CACTVS_TAUTO_COUNT>
92

> <PUBCHEM_CONFORMER_ID>
02A8583600000008

> <PUBCHEM_MMFF94_ENERGY>
177.8595

> <PUBCHEM_FEATURE_SELFOVERLAP>
101.6

> <PUBCHEM_SHAPE_FINGERPRINT>
10032420 55 18189338037917875038
10305334 12 16612776507284445670
10928967 22 18192727845267618879
11135609 12 17748834015870887339
11456790 92 18341332211435581129
12156800 1 15303742072584359899
12160290 23 17626401020954506548
12522641 24 17766037095934350035
12786520 15 16988292962626619894
12788726 201 18054813705388130833
12977781 61 17905853171764159375
133893 2 17845079856698569477
14725015 67 18115290298418235243
15200665 1 17550102559286679768
15815584 197 18055902427926827060
17809404 112 18339631248696956270
19315092 285 17698993308946573479
20764821 26 18045786950941770930
23559900 14 18117257337541522565
25265897 201 17908378638346384803
3383291 50 18189326893348478691
35225 105 16839686127622082993
392239 28 18341038688764070074
4015057 19 18266716074708045725
4616759 239 17979045234512188234
463206 1 18335146426682506002
469060 322 17131256983249699665
508706 21 17458340814941284667
56638632 33 17900227872206990170
6086070 43 18202283641322084765
86090 222 17545058442262072107

> <PUBCHEM_SHAPE_MULTIPOLES>
929.12
10.47
5.96
3.72
2.77
1.99
-0.38
-8.93
0.33
-0.07
3.74
-0.83
2.52
0.76

> <PUBCHEM_SHAPE_SELFOVERLAP>
1991.996

> <PUBCHEM_SHAPE_VOLUME>
511.9

> <PUBCHEM_COORDINATE_TYPE>
2
5
10

$$$$
