44590821
  -OEChem-03052615073D

 54 57  0     0  0  0  0  0  0999 V2000
   -0.5341    0.6375    0.6397 O   0  0  0  0  0  0  0  0  0  0  0  0
    1.8248    0.2997   -0.7919 O   0  0  0  0  0  0  0  0  0  0  0  0
   -4.5598    0.3141   -1.9714 O   0  0  0  0  0  0  0  0  0  0  0  0
   -1.6336   -1.9966   -1.7609 O   0  0  0  0  0  0  0  0  0  0  0  0
   -4.0836    0.2310    1.7267 O   0  0  0  0  0  0  0  0  0  0  0  0
   -1.7128    4.1044   -2.4012 O   0  0  0  0  0  0  0  0  0  0  0  0
   -0.6092    2.5188    2.6852 O   0  0  0  0  0  0  0  0  0  0  0  0
   -3.6936   -4.5127    1.7151 O   0  0  0  0  0  0  0  0  0  0  0  0
    3.9417    3.6622    1.8427 O   0  0  0  0  0  0  0  0  0  0  0  0
    1.7256   -1.4649    1.3544 O   0  0  0  0  0  0  0  0  0  0  0  0
    3.8193   -0.0176   -2.7028 O   0  0  0  0  0  0  0  0  0  0  0  0
    5.5379   -3.7791   -0.3307 O   0  0  0  0  0  0  0  0  0  0  0  0
   -2.5556    0.4378   -0.6479 C   0  0  0  0  0  0  0  0  0  0  0  0
   -2.8500   -0.8449   -0.0353 C   0  0  0  0  0  0  0  0  0  0  0  0
   -1.4031    1.1353   -0.2862 C   0  0  0  0  0  0  0  0  0  0  0  0
   -3.4248    0.9725   -1.5988 C   0  0  0  0  0  0  0  0  0  0  0  0
    0.5848    1.3938    0.9404 C   0  0  0  0  0  0  0  0  0  0  0  0
   -1.1199    2.3675   -0.8753 C   0  0  0  0  0  0  0  0  0  0  0  0
   -2.3768   -2.0209   -0.6175 C   0  0  0  0  0  0  0  0  0  0  0  0
   -3.6067   -0.9016    1.1351 C   0  0  0  0  0  0  0  0  0  0  0  0
    1.7627    1.2154    0.2149 C   0  0  0  0  0  0  0  0  0  0  0  0
   -3.1416    2.2046   -2.1880 C   0  0  0  0  0  0  0  0  0  0  0  0
   -1.9891    2.9022   -1.8262 C   0  0  0  0  0  0  0  0  0  0  0  0
    0.5349    2.3346    1.9690 C   0  0  0  0  0  0  0  0  0  0  0  0
   -2.6603   -3.2534   -0.0292 C   0  0  0  0  0  0  0  0  0  0  0  0
   -3.8901   -2.1341    1.7234 C   0  0  0  0  0  0  0  0  0  0  0  0
   -3.4169   -3.3100    1.1412 C   0  0  0  0  0  0  0  0  0  0  0  0
    2.8907    1.9776    0.5182 C   0  0  0  0  0  0  0  0  0  0  0  0
    1.6629    3.0969    2.2722 C   0  0  0  0  0  0  0  0  0  0  0  0
    2.8409    2.9185    1.5469 C   0  0  0  0  0  0  0  0  0  0  0  0
    2.7535   -0.7203   -0.6766 C   0  0  0  0  0  0  0  0  0  0  0  0
    2.6933   -1.5992    0.4049 C   0  0  0  0  0  0  0  0  0  0  0  0
    3.7494   -0.8692   -1.6417 C   0  0  0  0  0  0  0  0  0  0  0  0
    3.6290   -2.6271    0.5212 C   0  0  0  0  0  0  0  0  0  0  0  0
    4.6851   -1.8969   -1.5255 C   0  0  0  0  0  0  0  0  0  0  0  0
    4.6249   -2.7760   -0.4441 C   0  0  0  0  0  0  0  0  0  0  0  0
   -0.2435    2.9623   -0.6419 H   0  0  0  0  0  0  0  0  0  0  0  0
   -3.8136    2.6291   -2.9300 H   0  0  0  0  0  0  0  0  0  0  0  0
   -2.2953   -4.1750   -0.4759 H   0  0  0  0  0  0  0  0  0  0  0  0
   -4.4799   -2.1805    2.6357 H   0  0  0  0  0  0  0  0  0  0  0  0
    3.8115    1.8556   -0.0468 H   0  0  0  0  0  0  0  0  0  0  0  0
    1.6249    3.8306    3.0738 H   0  0  0  0  0  0  0  0  0  0  0  0
   -5.0308    0.8419   -2.6388 H   0  0  0  0  0  0  0  0  0  0  0  0
   -1.3965   -2.9071   -2.0072 H   0  0  0  0  0  0  0  0  0  0  0  0
   -4.5829   -0.0112    2.5254 H   0  0  0  0  0  0  0  0  0  0  0  0
    3.5827   -3.3127    1.3639 H   0  0  0  0  0  0  0  0  0  0  0  0
    5.4644   -2.0195   -2.2737 H   0  0  0  0  0  0  0  0  0  0  0  0
   -0.8793    4.4484   -2.0371 H   0  0  0  0  0  0  0  0  0  0  0  0
   -0.4582    3.2100    3.3526 H   0  0  0  0  0  0  0  0  0  0  0  0
   -4.2260   -4.3655    2.5156 H   0  0  0  0  0  0  0  0  0  0  0  0
    3.7295    4.2609    2.5793 H   0  0  0  0  0  0  0  0  0  0  0  0
    1.8402   -2.1595    2.0254 H   0  0  0  0  0  0  0  0  0  0  0  0
    4.5711   -0.2723   -3.2649 H   0  0  0  0  0  0  0  0  0  0  0  0
    5.3475   -4.2897    0.4749 H   0  0  0  0  0  0  0  0  0  0  0  0
  1 15  1  0  0  0  0
  1 17  1  0  0  0  0
  2 21  1  0  0  0  0
  2 31  1  0  0  0  0
  3 16  1  0  0  0  0
  3 43  1  0  0  0  0
  4 19  1  0  0  0  0
  4 44  1  0  0  0  0
  5 20  1  0  0  0  0
  5 45  1  0  0  0  0
  6 23  1  0  0  0  0
  6 48  1  0  0  0  0
  7 24  1  0  0  0  0
  7 49  1  0  0  0  0
  8 27  1  0  0  0  0
  8 50  1  0  0  0  0
  9 30  1  0  0  0  0
  9 51  1  0  0  0  0
 10 32  1  0  0  0  0
 10 52  1  0  0  0  0
 11 33  1  0  0  0  0
 11 53  1  0  0  0  0
 12 36  1  0  0  0  0
 12 54  1  0  0  0  0
 13 14  1  0  0  0  0
 13 15  1  0  0  0  0
 13 16  2  0  0  0  0
 14 19  2  0  0  0  0
 14 20  1  0  0  0  0
 15 18  2  0  0  0  0
 16 22  1  0  0  0  0
 17 21  1  0  0  0  0
 17 24  2  0  0  0  0
 18 23  1  0  0  0  0
 18 37  1  0  0  0  0
 19 25  1  0  0  0  0
 20 26  2  0  0  0  0
 21 28  2  0  0  0  0
 22 23  2  0  0  0  0
 22 38  1  0  0  0  0
 24 29  1  0  0  0  0
 25 27  2  0  0  0  0
 25 39  1  0  0  0  0
 26 27  1  0  0  0  0
 26 40  1  0  0  0  0
 28 30  1  0  0  0  0
 28 41  1  0  0  0  0
 29 30  2  0  0  0  0
 29 42  1  0  0  0  0
 31 32  2  0  0  0  0
 31 33  1  0  0  0  0
 32 34  1  0  0  0  0
 33 35  2  0  0  0  0
 34 36  2  0  0  0  0
 34 46  1  0  0  0  0
 35 36  1  0  0  0  0
 35 47  1  0  0  0  0
M  END
> <PUBCHEM_COMPOUND_CID>
44590821

> <PUBCHEM_CONFORMER_RMSD>
0.8

> <PUBCHEM_CONFORMER_DIVERSEORDER>
3
20
7
81
46
42
39
16
45
50
62
60
68
73
57
58
88
71
8
49
59
82
5
77
52
80
24
64
76
2
86
78
29
26
36
54
41
51
47
61
1
83
56
87
72
84
6
23
85
25
30
48
32
22
35
79
31
38
74
19
53
14
37
70
21
63
75
67
12
11
40
69
55
4
15
66
27
28
65
13
10
34
33
9
43
44
17
18

> <PUBCHEM_MMFF94_PARTIAL_CHARGES>
52
1 -0.17
10 -0.53
11 -0.53
12 -0.53
15 0.08
16 0.08
17 0.08
18 -0.15
19 0.08
2 -0.17
20 0.08
21 0.08
22 -0.15
23 0.08
24 0.08
25 -0.15
26 -0.15
27 0.08
28 -0.15
29 -0.15
3 -0.53
30 0.08
31 0.08
32 0.08
33 0.08
34 -0.15
35 -0.15
36 0.08
37 0.15
38 0.15
39 0.15
4 -0.53
40 0.15
41 0.15
42 0.15
43 0.45
44 0.45
45 0.45
46 0.15
47 0.15
48 0.45
49 0.45
5 -0.53
50 0.45
51 0.45
52 0.45
53 0.45
54 0.45
6 -0.53
7 -0.53
8 -0.53
9 -0.53

> <PUBCHEM_EFFECTIVE_ROTOR_COUNT>
5

> <PUBCHEM_PHARMACOPHORE_FEATURES>
16
1 1 acceptor
1 10 donor
1 11 donor
1 12 donor
1 2 acceptor
1 3 donor
1 4 donor
1 5 donor
1 6 donor
1 7 donor
1 8 donor
1 9 donor
6 13 15 16 18 22 23 rings
6 14 19 20 25 26 27 rings
6 17 21 24 28 29 30 rings
6 31 32 33 34 35 36 rings

> <PUBCHEM_HEAVY_ATOM_COUNT>
36

> <PUBCHEM_ATOM_DEF_STEREO_COUNT>
0

> <PUBCHEM_ATOM_UDEF_STEREO_COUNT>
0

> <PUBCHEM_BOND_DEF_STEREO_COUNT>
0

> <PUBCHEM_BOND_UDEF_STEREO_COUNT>
0

> <PUBCHEM_ISOTOPIC_ATOM_COUNT>
0

> <PUBCHEM_COMPONENT_COUNT>
1

> <PUBCHEM_CACTVS_TAUTO_COUNT>
998

> <PUBCHEM_CONFORMER_ID>
02A866E500000003

> <PUBCHEM_MMFF94_ENERGY>
128.3225

> <PUBCHEM_FEATURE_SELFOVERLAP>
81.216

> <PUBCHEM_SHAPE_FINGERPRINT>
10675989 125 16751829548279205076
11488393 25 18271236231687452296
11578080 2 18410011052426287789
12160290 23 16911175274671008176
12363563 72 17630875024325438340
12553582 1 17916595228342154502
12712778 12 18046886222483882194
12714826 92 18337116669951401317
12788726 201 17406257842618173232
13149001 5 18196912414771331636
15219462 58 17915735573685364313
15324884 4 17618467288914877409
15775530 1 18339911693007940520
17809404 112 17825360111232592663
17974551 9 17916887801698780243
1813 80 17825673523970705169
20775438 99 17622114287664578439
21133410 32 17605304855215091258
22182313 1 18264197183752275191
22440779 20 17972354838746684841
23559900 14 18260823791509704612
3737641 26 18198356241073649938
6287921 2 17690853675646596987
6371380 46 18268717100076948273
70634741 139 18263937540643586838
86090 222 17690290729820163490

> <PUBCHEM_SHAPE_MULTIPOLES>
670.43
9.59
5.55
2.58
4.68
0.81
0.14
7.89
1.64
0.64
-1.53
-0.66
-1.84
4.95

> <PUBCHEM_SHAPE_SELFOVERLAP>
1506.042

> <PUBCHEM_SHAPE_VOLUME>
353.1

> <PUBCHEM_COORDINATE_TYPE>
2
5
10

$$$$
