471119
  -OEChem-03052615083D

 67 70  0     1  0  0  0  0  0999 V2000
   -0.5983    1.4761    0.1532 O   0  0  0  0  0  0  0  0  0  0  0  0
    2.9616    1.7460   -0.6578 O   0  0  0  0  0  0  0  0  0  0  0  0
    2.4916    0.2171    1.6098 O   0  0  0  0  0  0  0  0  0  0  0  0
   -0.3551   -0.8650    1.8332 O   0  0  0  0  0  0  0  0  0  0  0  0
    0.1789    3.9749    0.0887 O   0  0  0  0  0  0  0  0  0  0  0  0
   -1.0360    0.2413   -1.7654 O   0  0  0  0  0  0  0  0  0  0  0  0
    1.8898    5.5649   -1.2585 O   0  0  0  0  0  0  0  0  0  0  0  0
   -5.7655   -0.7662    0.6393 O   0  0  0  0  0  0  0  0  0  0  0  0
   -4.4061   -1.8886   -2.0081 O   0  0  0  0  0  0  0  0  0  0  0  0
   -2.4288   -0.4633    2.7989 O   0  0  0  0  0  0  0  0  0  0  0  0
    2.4982    0.0506   -2.1298 O   0  0  0  0  0  0  0  0  0  0  0  0
   -6.7285    1.7878    0.6438 O   0  0  0  0  0  0  0  0  0  0  0  0
   -5.0831    3.9076   -0.0187 O   0  0  0  0  0  0  0  0  0  0  0  0
   -3.5161   -4.4684   -2.0393 O   0  0  0  0  0  0  0  0  0  0  0  0
   -1.7189   -5.3540   -0.1347 O   0  0  0  0  0  0  0  0  0  0  0  0
    7.6231    0.7125    0.7367 O   0  0  0  0  0  0  0  0  0  0  0  0
    5.6196   -3.5373   -0.1895 O   0  0  0  0  0  0  0  0  0  0  0  0
    7.7494   -2.0539    0.7752 O   0  0  0  0  0  0  0  0  0  0  0  0
    0.7908    1.0938    0.1647 C   0  0  1  0  0  0  0  0  0  0  0  0
    1.5976    2.1504   -0.5833 C   0  0  1  0  0  0  0  0  0  0  0  0
    1.2617    0.9436    1.6237 C   0  0  1  0  0  0  0  0  0  0  0  0
    1.5274    3.5464    0.0407 C   0  0  1  0  0  0  0  0  0  0  0  0
    0.2616    0.2259    2.5429 C   0  0  0  0  0  0  0  0  0  0  0  0
   -1.3764    0.9000   -0.7985 C   0  0  0  0  0  0  0  0  0  0  0  0
   -2.7779    1.0975   -0.4004 C   0  0  0  0  0  0  0  0  0  0  0  0
   -3.5907   -0.0065   -0.0645 C   0  0  0  0  0  0  0  0  0  0  0  0
   -3.0968   -1.3989   -0.0464 C   0  0  0  0  0  0  0  0  0  0  0  0
    2.3526    4.5596   -0.7289 C   0  0  0  0  0  0  0  0  0  0  0  0
   -2.1804   -1.8824    0.9127 C   0  0  0  0  0  0  0  0  0  0  0  0
   -1.6954   -1.0087    1.9928 C   0  0  0  0  0  0  0  0  0  0  0  0
    3.2024    0.5308   -1.2476 C   0  0  0  0  0  0  0  0  0  0  0  0
   -4.9282    0.2557    0.2813 C   0  0  0  0  0  0  0  0  0  0  0  0
   -3.2755    2.4059   -0.3840 C   0  0  0  0  0  0  0  0  0  0  0  0
   -3.5366   -2.2984   -1.0339 C   0  0  0  0  0  0  0  0  0  0  0  0
   -1.7193   -3.2041    0.8823 C   0  0  0  0  0  0  0  0  0  0  0  0
   -5.4286    1.5606    0.2978 C   0  0  0  0  0  0  0  0  0  0  0  0
   -4.6032    2.6329   -0.0325 C   0  0  0  0  0  0  0  0  0  0  0  0
    4.3909   -0.1446   -0.7195 C   0  0  0  0  0  0  0  0  0  0  0  0
   -3.0781   -3.6183   -1.0663 C   0  0  0  0  0  0  0  0  0  0  0  0
   -2.1706   -4.0690   -0.1108 C   0  0  0  0  0  0  0  0  0  0  0  0
    4.4420   -1.5328   -0.7052 C   0  0  0  0  0  0  0  0  0  0  0  0
    5.4532    0.6112   -0.2387 C   0  0  0  0  0  0  0  0  0  0  0  0
    6.5844   -0.0317    0.2644 C   0  0  0  0  0  0  0  0  0  0  0  0
    5.5729   -2.1757   -0.2022 C   0  0  0  0  0  0  0  0  0  0  0  0
    6.6443   -1.4253    0.2826 C   0  0  0  0  0  0  0  0  0  0  0  0
    0.8931    0.1113   -0.3098 H   0  0  0  0  0  0  0  0  0  0  0  0
    1.2052    2.2336   -1.6071 H   0  0  0  0  0  0  0  0  0  0  0  0
    1.4741    1.9011    2.1019 H   0  0  0  0  0  0  0  0  0  0  0  0
    1.9402    3.5734    1.0525 H   0  0  0  0  0  0  0  0  0  0  0  0
    0.7687   -0.1926    3.4186 H   0  0  0  0  0  0  0  0  0  0  0  0
   -0.4920    0.9472    2.8798 H   0  0  0  0  0  0  0  0  0  0  0  0
    2.2898   -0.6998    1.3556 H   0  0  0  0  0  0  0  0  0  0  0  0
    3.4365    4.3553   -0.7733 H   0  0  0  0  0  0  0  0  0  0  0  0
   -0.1822    3.9365   -0.8134 H   0  0  0  0  0  0  0  0  0  0  0  0
   -2.6317    3.2396   -0.6529 H   0  0  0  0  0  0  0  0  0  0  0  0
   -1.0178   -3.5628    1.6318 H   0  0  0  0  0  0  0  0  0  0  0  0
    3.6058   -2.1192   -1.0781 H   0  0  0  0  0  0  0  0  0  0  0  0
    5.4208    1.6976   -0.2570 H   0  0  0  0  0  0  0  0  0  0  0  0
   -5.2662   -1.5752    0.8310 H   0  0  0  0  0  0  0  0  0  0  0  0
   -4.4622   -0.9210   -2.0412 H   0  0  0  0  0  0  0  0  0  0  0  0
   -7.1475    0.9322    0.8413 H   0  0  0  0  0  0  0  0  0  0  0  0
   -4.3704    4.5182   -0.2742 H   0  0  0  0  0  0  0  0  0  0  0  0
   -4.1371   -3.9855   -2.6119 H   0  0  0  0  0  0  0  0  0  0  0  0
   -2.1345   -5.8104   -0.8869 H   0  0  0  0  0  0  0  0  0  0  0  0
    7.4053    1.6560    0.6461 H   0  0  0  0  0  0  0  0  0  0  0  0
    4.7920   -3.8865   -0.5623 H   0  0  0  0  0  0  0  0  0  0  0  0
    8.3848   -1.3761    1.0644 H   0  0  0  0  0  0  0  0  0  0  0  0
  1 19  1  0  0  0  0
  1 24  1  0  0  0  0
  2 20  1  0  0  0  0
  2 31  1  0  0  0  0
  3 21  1  0  0  0  0
  3 52  1  0  0  0  0
  4 23  1  0  0  0  0
  4 30  1  0  0  0  0
  5 22  1  0  0  0  0
  5 54  1  0  0  0  0
  6 24  2  0  0  0  0
  7 28  2  0  0  0  0
  8 32  1  0  0  0  0
  8 59  1  0  0  0  0
  9 34  1  0  0  0  0
  9 60  1  0  0  0  0
 10 30  2  0  0  0  0
 11 31  2  0  0  0  0
 12 36  1  0  0  0  0
 12 61  1  0  0  0  0
 13 37  1  0  0  0  0
 13 62  1  0  0  0  0
 14 39  1  0  0  0  0
 14 63  1  0  0  0  0
 15 40  1  0  0  0  0
 15 64  1  0  0  0  0
 16 43  1  0  0  0  0
 16 65  1  0  0  0  0
 17 44  1  0  0  0  0
 17 66  1  0  0  0  0
 18 45  1  0  0  0  0
 18 67  1  0  0  0  0
 19 20  1  0  0  0  0
 19 21  1  0  0  0  0
 19 46  1  0  0  0  0
 20 22  1  0  0  0  0
 20 47  1  0  0  0  0
 21 23  1  0  0  0  0
 21 48  1  0  0  0  0
 22 28  1  0  0  0  0
 22 49  1  0  0  0  0
 23 50  1  0  0  0  0
 23 51  1  0  0  0  0
 24 25  1  0  0  0  0
 25 26  1  0  0  0  0
 25 33  2  0  0  0  0
 26 27  1  0  0  0  0
 26 32  2  0  0  0  0
 27 29  1  0  0  0  0
 27 34  2  0  0  0  0
 28 53  1  0  0  0  0
 29 30  1  0  0  0  0
 29 35  2  0  0  0  0
 31 38  1  0  0  0  0
 32 36  1  0  0  0  0
 33 37  1  0  0  0  0
 33 55  1  0  0  0  0
 34 39  1  0  0  0  0
 35 40  1  0  0  0  0
 35 56  1  0  0  0  0
 36 37  2  0  0  0  0
 38 41  2  0  0  0  0
 38 42  1  0  0  0  0
 39 40  2  0  0  0  0
 41 44  1  0  0  0  0
 41 57  1  0  0  0  0
 42 43  2  0  0  0  0
 42 58  1  0  0  0  0
 43 45  1  0  0  0  0
 44 45  2  0  0  0  0
M  END
> <PUBCHEM_COMPOUND_CID>
471119

> <PUBCHEM_CONFORMER_RMSD>
1

> <PUBCHEM_CONFORMER_DIVERSEORDER>
39
66
44
93
95
145
48
87
111
64
84
99
140
130
15
96
54
119
142
68
21
144
22
166
10
141
108
151
104
37
169
49
59
114
40
160
58
90
91
94
124
35
74
8
14
42
30
129
79
126
117
105
132
85
152
24
45
43
47
41
137
127
112
34
123
46
76
18
157
156
102
125
7
53
115
146
25
98
100
163
78
51
162
153
1
113
69
107
167
158
138
82
4
97
121
63
106
149
81
71
136
13
161
62
133
12
159
139
70
89
143
17
50
72
5
122
155
80
19
147
120
88
36
11
110
2
73
92
148
103
77
109
60
150
65
128
31
170
134
135
33
168
6
56
171
52
154
118
165
86
38
16
164
3
101
131
67
26
116
32
20
83
29
9
27
75
57
61
55
23
28

> <PUBCHEM_MMFF94_PARTIAL_CHARGES>
59
1 -0.43
10 -0.57
11 -0.57
12 -0.53
13 -0.53
14 -0.53
15 -0.53
16 -0.53
17 -0.53
18 -0.53
19 0.28
2 -0.43
20 0.28
21 0.28
22 0.34
23 0.28
24 0.63
25 0.09
28 0.45
29 0.09
3 -0.68
30 0.63
31 0.63
32 0.08
33 -0.15
34 0.08
35 -0.15
36 0.08
37 0.08
38 0.09
39 0.08
4 -0.43
40 0.08
41 -0.15
42 -0.15
43 0.08
44 0.08
45 0.08
5 -0.68
52 0.4
53 0.06
54 0.4
55 0.15
56 0.15
57 0.15
58 0.15
59 0.45
6 -0.57
60 0.45
61 0.45
62 0.45
63 0.45
64 0.45
65 0.45
66 0.45
67 0.45
7 -0.57
8 -0.53
9 -0.53

> <PUBCHEM_EFFECTIVE_ROTOR_COUNT>
7

> <PUBCHEM_PHARMACOPHORE_FEATURES>
20
1 10 acceptor
1 11 acceptor
1 12 donor
1 13 donor
1 14 donor
1 15 donor
1 16 donor
1 17 donor
1 18 donor
1 3 acceptor
1 3 donor
1 5 acceptor
1 5 donor
1 6 acceptor
1 7 acceptor
1 8 donor
1 9 donor
6 25 26 32 33 36 37 rings
6 27 29 34 35 39 40 rings
6 38 41 42 43 44 45 rings

> <PUBCHEM_HEAVY_ATOM_COUNT>
45

> <PUBCHEM_ATOM_DEF_STEREO_COUNT>
0

> <PUBCHEM_ATOM_UDEF_STEREO_COUNT>
4

> <PUBCHEM_BOND_DEF_STEREO_COUNT>
0

> <PUBCHEM_BOND_UDEF_STEREO_COUNT>
0

> <PUBCHEM_ISOTOPIC_ATOM_COUNT>
0

> <PUBCHEM_COMPONENT_COUNT>
1

> <PUBCHEM_CACTVS_TAUTO_COUNT>
998

> <PUBCHEM_CONFORMER_ID>
0007304F00000027

> <PUBCHEM_MMFF94_ENERGY>
150.1607

> <PUBCHEM_FEATURE_SELFOVERLAP>
101.553

> <PUBCHEM_SHAPE_FINGERPRINT>
10842051 180 9871452185089762809
10940486 97 18410295826058954764
11136131 41 17903345259183667464
11297010 23 18118953712781056109
12373685 5 18335687361603778098
12608794 3 18196681612293397107
13761468 95 17753319873194320716
14295345 954 18265606757696475044
14394314 77 18336828580978444264
15183329 4 16805326578865627010
15297060 5 17985265175763977545
15361156 5 18041850618036923940
15419009 47 18412540985852556762
15439362 3 17760929542263890861
16628084 112 17754456755459159242
17809404 112 17489599951946132342
19309040 13 16663784320364456446
19311894 1 18409726262209084525
19315092 285 17699290180948114158
19319366 153 17386006118012748520
21133410 171 17331905928533489614
21703447 108 17839175556291919608
21987440 362 17539408730627790349
23559900 14 18269545203814707601
23572383 38 17989213620718906278
249057 3 18409451379706642517
3383291 50 18410296882942441707
376196 1 14183444216271615243
463206 1 18334299786113699458
513202 73 18191599738475742547
5265222 85 18413105056634518370
57527295 17 18119825839474546156
57527585 103 16373821239058332881
613672 6 16487266473310470266
6523845 18 16008744749247237651
70251023 43 18049440645624229755

> <PUBCHEM_SHAPE_MULTIPOLES>
820.43
15.5
6.1
1.73
19.61
0.29
0.56
-3.91
0.24
-2.73
-2.26
-0.61
-0.59
-1.61

> <PUBCHEM_SHAPE_SELFOVERLAP>
1815.406

> <PUBCHEM_SHAPE_VOLUME>
432.6

> <PUBCHEM_COORDINATE_TYPE>
2
5
10

$$$$
