118431
  -OEChem-02172602503D

 52 53  0     0  0  0  0  0  0999 V2000
    1.5710    1.3524    0.7718 S   0  0  0  0  0  0  0  0  0  0  0  0
   -1.5696   -1.3420    0.7827 S   0  0  0  0  0  0  0  0  0  0  0  0
    6.2835    1.4307   -0.6985 O   0  0  0  0  0  0  0  0  0  0  0  0
   -6.2752   -1.4388   -0.6941 O   0  0  0  0  0  0  0  0  0  0  0  0
    7.3483    0.0606    0.8117 O   0  0  0  0  0  0  0  0  0  0  0  0
   -7.3458   -0.0672    0.8105 O   0  0  0  0  0  0  0  0  0  0  0  0
    1.2712   -1.2416    0.7811 N   0  0  0  0  0  0  0  0  0  0  0  0
   -1.2699    1.2520    0.7739 N   0  0  0  0  0  0  0  0  0  0  0  0
    5.7239   -0.8884   -0.7499 C   0  0  0  0  0  0  0  0  0  0  0  0
   -5.7239    0.8820   -0.7534 C   0  0  0  0  0  0  0  0  0  0  0  0
    4.2073   -0.5810   -0.6550 C   0  0  0  0  0  0  0  0  0  0  0  0
   -4.2062    0.5803   -0.6565 C   0  0  0  0  0  0  0  0  0  0  0  0
    3.6278   -0.4901    0.7773 C   0  0  0  0  0  0  0  0  0  0  0  0
   -3.6559    0.5046    0.7763 C   0  0  0  0  0  0  0  0  0  0  0  0
    6.1297   -0.9882   -2.2316 C   0  0  0  0  0  0  0  0  0  0  0  0
    6.0525   -2.2297   -0.0710 C   0  0  0  0  0  0  0  0  0  0  0  0
   -6.0576    2.2246   -0.0796 C   0  0  0  0  0  0  0  0  0  0  0  0
   -6.1292    0.9751   -2.2357 C   0  0  0  0  0  0  0  0  0  0  0  0
    6.5520    0.2301   -0.1040 C   0  0  0  0  0  0  0  0  0  0  0  0
   -6.5485   -0.2370   -0.1041 C   0  0  0  0  0  0  0  0  0  0  0  0
    2.1637   -0.2726    0.7774 C   0  0  0  0  0  0  0  0  0  0  0  0
   -2.1623    0.2829    0.7777 C   0  0  0  0  0  0  0  0  0  0  0  0
   -0.0325    0.6874    0.7752 C   0  0  0  0  0  0  0  0  0  0  0  0
    0.0338   -0.6772    0.7798 C   0  0  0  0  0  0  0  0  0  0  0  0
    7.0073    2.5533   -0.1849 C   0  0  0  0  0  0  0  0  0  0  0  0
   -6.9955   -2.5621   -0.1770 C   0  0  0  0  0  0  0  0  0  0  0  0
    3.9881    0.3584   -1.1805 H   0  0  0  0  0  0  0  0  0  0  0  0
    3.6554   -1.3588   -1.2020 H   0  0  0  0  0  0  0  0  0  0  0  0
   -3.9816   -0.3620   -1.1742 H   0  0  0  0  0  0  0  0  0  0  0  0
   -3.6544    1.3570   -1.2049 H   0  0  0  0  0  0  0  0  0  0  0  0
    4.1410    0.3001    1.3381 H   0  0  0  0  0  0  0  0  0  0  0  0
    3.8250   -1.4245    1.3148 H   0  0  0  0  0  0  0  0  0  0  0  0
   -4.1599   -0.2871    1.3426 H   0  0  0  0  0  0  0  0  0  0  0  0
   -3.8442    1.4434    1.3087 H   0  0  0  0  0  0  0  0  0  0  0  0
    5.6295   -1.8302   -2.7231 H   0  0  0  0  0  0  0  0  0  0  0  0
    7.2117   -1.1302   -2.3368 H   0  0  0  0  0  0  0  0  0  0  0  0
    5.8674   -0.0795   -2.7852 H   0  0  0  0  0  0  0  0  0  0  0  0
    5.4251   -3.0374   -0.4641 H   0  0  0  0  0  0  0  0  0  0  0  0
    5.9112   -2.1869    1.0140 H   0  0  0  0  0  0  0  0  0  0  0  0
    7.0993   -2.5095   -0.2395 H   0  0  0  0  0  0  0  0  0  0  0  0
   -7.1034    2.5034   -0.2568 H   0  0  0  0  0  0  0  0  0  0  0  0
   -5.9257    2.1852    1.0068 H   0  0  0  0  0  0  0  0  0  0  0  0
   -5.4281    3.0318   -0.4701 H   0  0  0  0  0  0  0  0  0  0  0  0
   -5.8626    0.0656   -2.7860 H   0  0  0  0  0  0  0  0  0  0  0  0
   -7.2116    1.1122   -2.3421 H   0  0  0  0  0  0  0  0  0  0  0  0
   -5.6321    1.8176   -2.7298 H   0  0  0  0  0  0  0  0  0  0  0  0
    6.7006    3.4404   -0.7453 H   0  0  0  0  0  0  0  0  0  0  0  0
    8.0827    2.4055   -0.3220 H   0  0  0  0  0  0  0  0  0  0  0  0
    6.7686    2.7057    0.8720 H   0  0  0  0  0  0  0  0  0  0  0  0
   -6.6855   -3.4502   -0.7341 H   0  0  0  0  0  0  0  0  0  0  0  0
   -8.0713   -2.4185   -0.3153 H   0  0  0  0  0  0  0  0  0  0  0  0
   -6.7569   -2.7100    0.8806 H   0  0  0  0  0  0  0  0  0  0  0  0
  1 21  1  0  0  0  0
  1 23  1  0  0  0  0
  2 22  1  0  0  0  0
  2 24  1  0  0  0  0
  3 19  1  0  0  0  0
  3 25  1  0  0  0  0
  4 20  1  0  0  0  0
  4 26  1  0  0  0  0
  5 19  2  0  0  0  0
  6 20  2  0  0  0  0
  7 21  2  0  0  0  0
  7 24  1  0  0  0  0
  8 22  2  0  0  0  0
  8 23  1  0  0  0  0
  9 11  1  0  0  0  0
  9 15  1  0  0  0  0
  9 16  1  0  0  0  0
  9 19  1  0  0  0  0
 10 12  1  0  0  0  0
 10 17  1  0  0  0  0
 10 18  1  0  0  0  0
 10 20  1  0  0  0  0
 11 13  1  0  0  0  0
 11 27  1  0  0  0  0
 11 28  1  0  0  0  0
 12 14  1  0  0  0  0
 12 29  1  0  0  0  0
 12 30  1  0  0  0  0
 13 21  1  0  0  0  0
 13 31  1  0  0  0  0
 13 32  1  0  0  0  0
 14 22  1  0  0  0  0
 14 33  1  0  0  0  0
 14 34  1  0  0  0  0
 15 35  1  0  0  0  0
 15 36  1  0  0  0  0
 15 37  1  0  0  0  0
 16 38  1  0  0  0  0
 16 39  1  0  0  0  0
 16 40  1  0  0  0  0
 17 41  1  0  0  0  0
 17 42  1  0  0  0  0
 17 43  1  0  0  0  0
 18 44  1  0  0  0  0
 18 45  1  0  0  0  0
 18 46  1  0  0  0  0
 23 24  2  0  0  0  0
 25 47  1  0  0  0  0
 25 48  1  0  0  0  0
 25 49  1  0  0  0  0
 26 50  1  0  0  0  0
 26 51  1  0  0  0  0
 26 52  1  0  0  0  0
M  END
> <PUBCHEM_COMPOUND_CID>
118431

> <PUBCHEM_CONFORMER_RMSD>
1

> <PUBCHEM_CONFORMER_DIVERSEORDER>
1
202
178
110
254
270
90
22
116
192
255
115
4
243
72
210
34
221
33
119
69
121
162
165
239
222
53
61
229
197
106
134
204
264
32
182
45
109
172
152
89
241
87
183
195
39
219
233
31
193
20
96
220
98
63
157
256
269
24
154
12
156
126
103
184
272
199
97
271
2
102
203
166
114
208
159
130
214
7
141
128
57
86
248
95
55
164
211
70
100
3
105
146
276
60
244
155
46
92
217
196
153
91
168
56
227
189
132
266
140
76
273
181
228
25
213
40
191
201
37
246
123
67
171
194
74
234
28
188
251
62
161
8
274
259
29
151
180
250
30
124
149
23
73
71
85
15
36
261
101
150
240
65
84
167
66
209
68
136
237
16
247
108
262
77
224
54
226
11
139
275
111
6
207
44
173
59
147
206
81
49
231
133
94
177
263
268
26
51
245
99
258
21
238
190
43
249
5
138
35
225
260
145
163
179
93
19
42
215
212
118
18
216
82
80
185
242
169
9
265
218
38
236
122
235
78
129
230
253
252
186
47
10
137
205
148
79
200
223
160
158
27
83
131
257
120
174
198
64
170
267
135
41
88
127
50
75
187
176
232
113
107
48
142
112
125
143
58
144
104
175
14
13
52
117
17

> <PUBCHEM_MMFF94_PARTIAL_CHARGES>
20
1 -0.11
10 0.06
13 0.18
14 0.18
19 0.66
2 -0.11
20 0.66
21 0.2
22 0.2
23 0.37
24 0.37
25 0.28
26 0.28
3 -0.43
4 -0.43
5 -0.57
6 -0.57
7 -0.64
8 -0.64
9 0.06

> <PUBCHEM_EFFECTIVE_ROTOR_COUNT>
10

> <PUBCHEM_PHARMACOPHORE_FEATURES>
8
1 5 acceptor
1 6 acceptor
1 7 acceptor
1 8 acceptor
3 10 17 18 hydrophobe
3 9 15 16 hydrophobe
5 1 7 21 23 24 rings
5 2 8 22 23 24 rings

> <PUBCHEM_HEAVY_ATOM_COUNT>
26

> <PUBCHEM_ATOM_DEF_STEREO_COUNT>
0

> <PUBCHEM_ATOM_UDEF_STEREO_COUNT>
0

> <PUBCHEM_BOND_DEF_STEREO_COUNT>
0

> <PUBCHEM_BOND_UDEF_STEREO_COUNT>
0

> <PUBCHEM_ISOTOPIC_ATOM_COUNT>
0

> <PUBCHEM_COMPONENT_COUNT>
1

> <PUBCHEM_CACTVS_TAUTO_COUNT>
3

> <PUBCHEM_CONFORMER_ID>
0001CE9F00000001

> <PUBCHEM_MMFF94_ENERGY>
43.0841

> <PUBCHEM_FEATURE_SELFOVERLAP>
40.781

> <PUBCHEM_SHAPE_FINGERPRINT>
10 15 11169920476287307663
10299344 5 15769774654251225189
10835480 77 18335422404860492336
11007060 377 18040721385367010611
12082328 90 18343301445028901061
13533116 47 15339112434342866978
13668630 136 18131636672719617759
13685833 64 17346599664307480770
13782708 43 15769769126543919088
14347424 109 8286200527336497382
15183329 4 18410575046008373251
15301273 46 10447932771694434322
20281389 69 17167860850720053412
21150785 3 18410856576824933720
21267235 1 18342176687873438139
22224240 67 11169919398129522201
23081809 10 17703799080865392792
23424782 7 18338517555371628451
23559900 14 18271518792715999425
24771750 20 17980484778268660392
2838139 119 16443068292175532205
3009799 131 18413387627270858080
34797466 226 18272939319438142060
445580 167 18336542815281705063
999808 66 17704075110066684759

> <PUBCHEM_SHAPE_MULTIPOLES>
509.33
25.29
2.16
1.4
0.08
0.01
0.75
0.05
8.54
0
0.17
0
0
0.86

> <PUBCHEM_SHAPE_SELFOVERLAP>
1021.86

> <PUBCHEM_SHAPE_VOLUME>
304.7

> <PUBCHEM_COORDINATE_TYPE>
2
5
10

$$$$
