5322078
  -OEChem-02172602583D

 34 36  0     0  0  0  0  0  0999 V2000
    0.0377   -0.4733    0.1100 O   0  0  0  0  0  0  0  0  0  0  0  0
   -1.5966   -2.6193    0.3763 O   0  0  0  0  0  0  0  0  0  0  0  0
   -3.8674    2.3846   -0.1718 O   0  0  0  0  0  0  0  0  0  0  0  0
   -4.3447   -2.3029    0.3724 O   0  0  0  0  0  0  0  0  0  0  0  0
   -1.4156    3.3102   -0.3043 O   0  0  0  0  0  0  0  0  0  0  0  0
    6.3567   -0.6906    0.0798 O   0  0  0  0  0  0  0  0  0  0  0  0
   -1.8811    1.0088   -0.0379 C   0  0  0  0  0  0  0  0  0  0  0  0
   -1.3173   -0.2583    0.1010 C   0  0  0  0  0  0  0  0  0  0  0  0
    0.8804    0.6182   -0.0338 C   0  0  0  0  0  0  0  0  0  0  0  0
   -2.1403   -1.3762    0.2396 C   0  0  0  0  0  0  0  0  0  0  0  0
   -0.9899    2.1700   -0.1811 C   0  0  0  0  0  0  0  0  0  0  0  0
   -3.2688    1.1683   -0.0395 C   0  0  0  0  0  0  0  0  0  0  0  0
    2.3165    0.2754   -0.0049 C   0  0  0  0  0  0  0  0  0  0  0  0
    0.4592    1.8859   -0.1685 C   0  0  0  0  0  0  0  0  0  0  0  0
   -3.5268   -1.2212    0.2383 C   0  0  0  0  0  0  0  0  0  0  0  0
   -4.0896    0.0483    0.0990 C   0  0  0  0  0  0  0  0  0  0  0  0
    3.2459    1.1887    0.4988 C   0  0  0  0  0  0  0  0  0  0  0  0
    2.7517   -0.9642   -0.4799 C   0  0  0  0  0  0  0  0  0  0  0  0
    4.6024    0.8646    0.5270 C   0  0  0  0  0  0  0  0  0  0  0  0
    4.1080   -1.2884   -0.4515 C   0  0  0  0  0  0  0  0  0  0  0  0
    5.0334   -0.3741    0.0519 C   0  0  0  0  0  0  0  0  0  0  0  0
   -1.3539   -3.3543   -0.8209 C   0  0  0  0  0  0  0  0  0  0  0  0
    1.1198    2.7359   -0.2931 H   0  0  0  0  0  0  0  0  0  0  0  0
   -5.1702    0.1715    0.0977 H   0  0  0  0  0  0  0  0  0  0  0  0
    2.9483    2.1544    0.8986 H   0  0  0  0  0  0  0  0  0  0  0  0
    2.0533   -1.6926   -0.8850 H   0  0  0  0  0  0  0  0  0  0  0  0
    5.3130    1.5834    0.9262 H   0  0  0  0  0  0  0  0  0  0  0  0
    4.4382   -2.2542   -0.8245 H   0  0  0  0  0  0  0  0  0  0  0  0
   -3.2016    3.0834   -0.2619 H   0  0  0  0  0  0  0  0  0  0  0  0
   -5.2705   -2.0058    0.3481 H   0  0  0  0  0  0  0  0  0  0  0  0
   -0.6473   -2.8211   -1.4647 H   0  0  0  0  0  0  0  0  0  0  0  0
   -2.2897   -3.5343   -1.3593 H   0  0  0  0  0  0  0  0  0  0  0  0
   -0.9171   -4.3189   -0.5478 H   0  0  0  0  0  0  0  0  0  0  0  0
    6.8515    0.0563    0.4587 H   0  0  0  0  0  0  0  0  0  0  0  0
  1  8  1  0  0  0  0
  1  9  1  0  0  0  0
  2 10  1  0  0  0  0
  2 22  1  0  0  0  0
  3 12  1  0  0  0  0
  3 29  1  0  0  0  0
  4 15  1  0  0  0  0
  4 30  1  0  0  0  0
  5 11  2  0  0  0  0
  6 21  1  0  0  0  0
  6 34  1  0  0  0  0
  7  8  2  0  0  0  0
  7 11  1  0  0  0  0
  7 12  1  0  0  0  0
  8 10  1  0  0  0  0
  9 13  1  0  0  0  0
  9 14  2  0  0  0  0
 10 15  2  0  0  0  0
 11 14  1  0  0  0  0
 12 16  2  0  0  0  0
 13 17  2  0  0  0  0
 13 18  1  0  0  0  0
 14 23  1  0  0  0  0
 15 16  1  0  0  0  0
 16 24  1  0  0  0  0
 17 19  1  0  0  0  0
 17 25  1  0  0  0  0
 18 20  2  0  0  0  0
 18 26  1  0  0  0  0
 19 21  2  0  0  0  0
 19 27  1  0  0  0  0
 20 21  1  0  0  0  0
 20 28  1  0  0  0  0
 22 31  1  0  0  0  0
 22 32  1  0  0  0  0
 22 33  1  0  0  0  0
M  END
> <PUBCHEM_COMPOUND_CID>
5322078

> <PUBCHEM_CONFORMER_RMSD>
0.6

> <PUBCHEM_CONFORMER_DIVERSEORDER>
1
2

> <PUBCHEM_MMFF94_PARTIAL_CHARGES>
31
1 -0.16
10 0.08
11 0.47
12 0.08
13 0.03
14 -0.14
15 0.08
16 -0.15
17 -0.15
18 -0.15
19 -0.15
2 -0.36
20 -0.15
21 0.08
22 0.28
23 0.15
24 0.15
25 0.15
26 0.15
27 0.15
28 0.15
29 0.45
3 -0.53
30 0.45
34 0.45
4 -0.53
5 -0.57
6 -0.53
7 0.09
8 0.08
9 0.05

> <PUBCHEM_EFFECTIVE_ROTOR_COUNT>
2

> <PUBCHEM_PHARMACOPHORE_FEATURES>
9
1 1 acceptor
1 2 acceptor
1 3 donor
1 4 donor
1 5 acceptor
1 6 donor
6 1 7 8 9 11 14 rings
6 13 17 18 19 20 21 rings
6 7 8 10 12 15 16 rings

> <PUBCHEM_HEAVY_ATOM_COUNT>
22

> <PUBCHEM_ATOM_DEF_STEREO_COUNT>
0

> <PUBCHEM_ATOM_UDEF_STEREO_COUNT>
0

> <PUBCHEM_BOND_DEF_STEREO_COUNT>
0

> <PUBCHEM_BOND_UDEF_STEREO_COUNT>
0

> <PUBCHEM_ISOTOPIC_ATOM_COUNT>
0

> <PUBCHEM_COMPONENT_COUNT>
1

> <PUBCHEM_CACTVS_TAUTO_COUNT>
57

> <PUBCHEM_CONFORMER_ID>
0051355E00000001

> <PUBCHEM_MMFF94_ENERGY>
77.3084

> <PUBCHEM_FEATURE_SELFOVERLAP>
45.706

> <PUBCHEM_SHAPE_FINGERPRINT>
10319926 262 18267847446951544490
10411042 1 18265054828887637027
105312 117 17678162803396717525
10616163 171 18410294705309678350
10967382 1 17905611356468071189
11014199 57 17550099707666187918
11524674 6 17203325598865111734
11720765 8 16550834953541801207
12107183 9 17540808396566500384
12236239 1 17458347408184971592
12553582 1 18050294965679340567
13140716 1 18410865382057049481
13288520 33 18409168817886382260
13402501 40 18343304743141992566
13544592 145 18200042720317863886
14790565 3 17979079275790362273
15042514 8 18408889563729731499
15196674 1 18410293627230481192
15352361 1 18337954600838422482
15375358 24 18272652329264422550
17804303 29 18412547630114527928
1813 80 17530961427783525068
19141452 34 18272654601239110727
19591789 44 18410293627167288171
200 152 17417805115406654856
20510252 161 18270962336695308473
21033648 29 17988911276015634344
21065198 57 18413105074442017880
21267235 1 18335991942570864363
2297311 6 18411710885002399428
23366157 5 17824544312407571156
23402539 116 18342451556546856367
23557571 272 18341620330119816076
23559900 14 18341328886740269580
2748010 2 18411145706113893255
335352 9 18409167732172273293
4214541 1 18410856542808313936
5104073 3 18413105057225265192
5364581 5 18055330674128836640
559249 180 18262232227703866802
59755656 215 18336544928733019479
67856867 119 18187651362239789820
69090 78 18412823560335626894
9709674 26 18342742871304373550

> <PUBCHEM_SHAPE_MULTIPOLES>
417.53
10.28
3.14
0.69
11.45
0.45
0.02
2.16
-0.88
-3.27
0.47
0.06
0.1
0.63

> <PUBCHEM_SHAPE_SELFOVERLAP>
929.421

> <PUBCHEM_SHAPE_VOLUME>
221.7

> <PUBCHEM_COORDINATE_TYPE>
2
5
10

$$$$
