5372777
  -OEChem-02172602253D

 20 20  0     1  0  0  0  0  0999 V2000
   -2.2140   -2.0186    0.1841 S   0  0  0  0  0  0  0  0  0  0  0  0
   -1.2993    0.3833   -0.0497 O   0  0  0  0  0  0  0  0  0  0  0  0
    0.3536   -1.3021   -0.1154 N   0  0  0  0  0  0  0  0  0  0  0  0
    1.0558    1.0041    0.2134 C   0  0  0  0  0  0  0  0  0  0  0  0
    1.4352   -0.3606   -0.3483 C   0  0  1  0  0  0  0  0  0  0  0  0
   -0.3048    1.3899   -0.3546 C   0  0  2  0  0  0  0  0  0  0  0  0
    2.7354   -0.8701    0.2611 C   0  0  0  0  0  0  0  0  0  0  0  0
   -0.7950    2.7096    0.2240 C   0  0  0  0  0  0  0  0  0  0  0  0
   -0.9669   -0.9355   -0.0146 C   0  0  0  0  0  0  0  0  0  0  0  0
    0.9963    0.9473    1.3084 H   0  0  0  0  0  0  0  0  0  0  0  0
    1.8123    1.7541   -0.0432 H   0  0  0  0  0  0  0  0  0  0  0  0
    1.5558   -0.2929   -1.4363 H   0  0  0  0  0  0  0  0  0  0  0  0
   -0.2568    1.4790   -1.4466 H   0  0  0  0  0  0  0  0  0  0  0  0
    0.5675   -2.2948   -0.1331 H   0  0  0  0  0  0  0  0  0  0  0  0
    2.6419   -1.0019    1.3448 H   0  0  0  0  0  0  0  0  0  0  0  0
    3.0093   -1.8415   -0.1651 H   0  0  0  0  0  0  0  0  0  0  0  0
    3.5568   -0.1722    0.0696 H   0  0  0  0  0  0  0  0  0  0  0  0
   -0.0987    3.5241    0.0033 H   0  0  0  0  0  0  0  0  0  0  0  0
   -1.7761    2.9665   -0.1899 H   0  0  0  0  0  0  0  0  0  0  0  0
   -0.9218    2.6387    1.3099 H   0  0  0  0  0  0  0  0  0  0  0  0
  1  9  2  0  0  0  0
  2  6  1  0  0  0  0
  2  9  1  0  0  0  0
  3  5  1  0  0  0  0
  3  9  1  0  0  0  0
  3 14  1  0  0  0  0
  4  5  1  0  0  0  0
  4  6  1  0  0  0  0
  4 10  1  0  0  0  0
  4 11  1  0  0  0  0
  5  7  1  0  0  0  0
  5 12  1  0  0  0  0
  6  8  1  0  0  0  0
  6 13  1  0  0  0  0
  7 15  1  0  0  0  0
  7 16  1  0  0  0  0
  7 17  1  0  0  0  0
  8 18  1  0  0  0  0
  8 19  1  0  0  0  0
  8 20  1  0  0  0  0
M  END
> <PUBCHEM_COMPOUND_CID>
5372777

> <PUBCHEM_CONFORMER_RMSD>
0.4

> <PUBCHEM_CONFORMER_DIVERSEORDER>
1
8
5
7
4
3
2
6

> <PUBCHEM_MMFF94_PARTIAL_CHARGES>
7
1 -0.38
14 0.37
2 -0.43
3 -0.73
5 0.3
6 0.28
9 0.59

> <PUBCHEM_EFFECTIVE_ROTOR_COUNT>
1

> <PUBCHEM_PHARMACOPHORE_FEATURES>
2
1 1 acceptor
6 2 3 4 5 6 9 rings

> <PUBCHEM_HEAVY_ATOM_COUNT>
9

> <PUBCHEM_ATOM_DEF_STEREO_COUNT>
0

> <PUBCHEM_ATOM_UDEF_STEREO_COUNT>
2

> <PUBCHEM_BOND_DEF_STEREO_COUNT>
0

> <PUBCHEM_BOND_UDEF_STEREO_COUNT>
0

> <PUBCHEM_ISOTOPIC_ATOM_COUNT>
0

> <PUBCHEM_COMPONENT_COUNT>
1

> <PUBCHEM_CACTVS_TAUTO_COUNT>
2

> <PUBCHEM_CONFORMER_ID>
0051FB6900000001

> <PUBCHEM_MMFF94_ENERGY>
12.9202

> <PUBCHEM_FEATURE_SELFOVERLAP>
10.148

> <PUBCHEM_SHAPE_FINGERPRINT>
16945 1 18338802186932841766
18185500 45 18123755519426948502
20871998 184 18272649022034285078
21040471 1 17906456524063529092
23552423 10 18186804707651431374
23552449 1 18411133623827635502
241688 4 18410576218550276217
2748010 2 18340199807845458620
29004967 10 18047189940626525147

> <PUBCHEM_SHAPE_MULTIPOLES>
178.21
2.93
2.64
0.66
2.39
1.26
0
-1.46
-0.29
-1.61
-0.2
-0.02
0
-0.01

> <PUBCHEM_SHAPE_SELFOVERLAP>
337.028

> <PUBCHEM_SHAPE_VOLUME>
112.6

> <PUBCHEM_COORDINATE_TYPE>
2
5
10

$$$$
