114572
  -OEChem-02172602343D

 37 36  0     1  0  0  0  0  0999 V2000
    0.4706    0.2045    1.5131 O   0  0  0  0  0  0  0  0  0  0  0  0
    2.9532   -1.6402    0.4614 O   0  0  0  0  0  0  0  0  0  0  0  0
   -0.6922    1.2801   -0.3093 C   0  0  1  0  0  0  0  0  0  0  0  0
    1.2719   -0.3819   -0.6888 C   0  0  1  0  0  0  0  0  0  0  0  0
    0.3698    0.3585    0.2954 C   0  0  0  0  0  0  0  0  0  0  0  0
   -1.9381    1.3836    0.5856 C   0  0  0  0  0  0  0  0  0  0  0  0
   -0.0645    2.6558   -0.5218 C   0  0  0  0  0  0  0  0  0  0  0  0
    2.6757   -0.5998   -0.1380 C   0  0  0  0  0  0  0  0  0  0  0  0
    0.6537   -1.6982   -1.1497 C   0  0  0  0  0  0  0  0  0  0  0  0
   -2.5933    0.0458    0.8022 C   0  0  0  0  0  0  0  0  0  0  0  0
    3.7008    0.5025   -0.3532 C   0  0  0  0  0  0  0  0  0  0  0  0
   -3.5620   -0.5377    0.0711 C   0  0  0  0  0  0  0  0  0  0  0  0
    5.0611    0.1438    0.2183 C   0  0  0  0  0  0  0  0  0  0  0  0
   -4.1733   -1.8821    0.3457 C   0  0  0  0  0  0  0  0  0  0  0  0
   -4.1333    0.1654   -1.1320 C   0  0  0  0  0  0  0  0  0  0  0  0
   -0.9890    0.8677   -1.2813 H   0  0  0  0  0  0  0  0  0  0  0  0
    1.3921    0.2514   -1.5767 H   0  0  0  0  0  0  0  0  0  0  0  0
   -1.6660    1.7860    1.5705 H   0  0  0  0  0  0  0  0  0  0  0  0
   -2.6483    2.1062    0.1690 H   0  0  0  0  0  0  0  0  0  0  0  0
    0.8118    2.5944   -1.1759 H   0  0  0  0  0  0  0  0  0  0  0  0
    0.2660    3.0924    0.4274 H   0  0  0  0  0  0  0  0  0  0  0  0
   -0.7806    3.3435   -0.9834 H   0  0  0  0  0  0  0  0  0  0  0  0
    1.3206   -2.2290   -1.8373 H   0  0  0  0  0  0  0  0  0  0  0  0
   -0.2986   -1.5241   -1.6614 H   0  0  0  0  0  0  0  0  0  0  0  0
    0.4505   -2.3587   -0.2993 H   0  0  0  0  0  0  0  0  0  0  0  0
   -2.2187   -0.5097    1.6611 H   0  0  0  0  0  0  0  0  0  0  0  0
    3.3276    1.4144    0.1239 H   0  0  0  0  0  0  0  0  0  0  0  0
    3.7922    0.6796   -1.4298 H   0  0  0  0  0  0  0  0  0  0  0  0
    5.4568   -0.7649   -0.2474 H   0  0  0  0  0  0  0  0  0  0  0  0
    5.7735    0.9557    0.0431 H   0  0  0  0  0  0  0  0  0  0  0  0
    5.0010   -0.0308    1.2977 H   0  0  0  0  0  0  0  0  0  0  0  0
   -3.7384   -2.3466    1.2368 H   0  0  0  0  0  0  0  0  0  0  0  0
   -4.0064   -2.5581   -0.4989 H   0  0  0  0  0  0  0  0  0  0  0  0
   -5.2512   -1.7854    0.5108 H   0  0  0  0  0  0  0  0  0  0  0  0
   -5.1730    0.4503   -0.9393 H   0  0  0  0  0  0  0  0  0  0  0  0
   -3.5898    1.0631   -1.4339 H   0  0  0  0  0  0  0  0  0  0  0  0
   -4.1198   -0.5081   -1.9963 H   0  0  0  0  0  0  0  0  0  0  0  0
  1  5  2  0  0  0  0
  2  8  2  0  0  0  0
  3  5  1  0  0  0  0
  3  6  1  0  0  0  0
  3  7  1  0  0  0  0
  3 16  1  0  0  0  0
  4  5  1  0  0  0  0
  4  8  1  0  0  0  0
  4  9  1  0  0  0  0
  4 17  1  0  0  0  0
  6 10  1  0  0  0  0
  6 18  1  0  0  0  0
  6 19  1  0  0  0  0
  7 20  1  0  0  0  0
  7 21  1  0  0  0  0
  7 22  1  0  0  0  0
  8 11  1  0  0  0  0
  9 23  1  0  0  0  0
  9 24  1  0  0  0  0
  9 25  1  0  0  0  0
 10 12  2  0  0  0  0
 10 26  1  0  0  0  0
 11 13  1  0  0  0  0
 11 27  1  0  0  0  0
 11 28  1  0  0  0  0
 12 14  1  0  0  0  0
 12 15  1  0  0  0  0
 13 29  1  0  0  0  0
 13 30  1  0  0  0  0
 13 31  1  0  0  0  0
 14 32  1  0  0  0  0
 14 33  1  0  0  0  0
 14 34  1  0  0  0  0
 15 35  1  0  0  0  0
 15 36  1  0  0  0  0
 15 37  1  0  0  0  0
M  END
> <PUBCHEM_COMPOUND_CID>
114572

> <PUBCHEM_CONFORMER_RMSD>
1

> <PUBCHEM_CONFORMER_DIVERSEORDER>
1
26
49
60
106
21
141
162
103
168
155
86
188
166
180
87
158
98
127
33
177
10
14
169
110
35
117
63
61
67
16
57
58
81
175
108
176
6
31
173
123
95
163
174
185
55
104
97
93
149
5
17
51
82
29
119
50
124
101
66
65
11
111
113
24
179
187
181
118
20
144
23
133
137
2
36
184
34
122
73
182
43
136
139
156
84
85
157
135
40
165
54
22
116
3
77
105
37
68
8
167
159
172
13
45
112
192
12
140
38
121
154
7
90
89
145
114
92
107
42
120
75
28
30
190
99
131
88
160
41
19
161
71
170
186
132
78
76
96
72
109
32
183
70
62
146
64
52
178
83
148
191
189
27
44
134
126
46
9
53
15
143
79
152
102
153
91
48
164
151
128
147
130
25
129
39
94
142
125
171
193
56
138
4
100
150
74
80
47
59
69
115
18

> <PUBCHEM_MMFF94_PARTIAL_CHARGES>
13
1 -0.57
10 -0.29
11 0.06
12 -0.28
14 0.14
15 0.14
2 -0.57
26 0.15
3 0.06
4 0.12
5 0.45
6 0.14
8 0.45

> <PUBCHEM_EFFECTIVE_ROTOR_COUNT>
6

> <PUBCHEM_PHARMACOPHORE_FEATURES>
7
1 1 acceptor
1 13 hydrophobe
1 2 acceptor
1 4 anion
1 7 hydrophobe
1 9 hydrophobe
3 12 14 15 hydrophobe

> <PUBCHEM_HEAVY_ATOM_COUNT>
15

> <PUBCHEM_ATOM_DEF_STEREO_COUNT>
0

> <PUBCHEM_ATOM_UDEF_STEREO_COUNT>
2

> <PUBCHEM_BOND_DEF_STEREO_COUNT>
0

> <PUBCHEM_BOND_UDEF_STEREO_COUNT>
0

> <PUBCHEM_ISOTOPIC_ATOM_COUNT>
0

> <PUBCHEM_COMPONENT_COUNT>
1

> <PUBCHEM_CACTVS_TAUTO_COUNT>
8

> <PUBCHEM_CONFORMER_ID>
0001BF8C00000001

> <PUBCHEM_MMFF94_ENERGY>
17.3684

> <PUBCHEM_FEATURE_SELFOVERLAP>
35.523

> <PUBCHEM_SHAPE_FINGERPRINT>
11132069 177 17846491547876068694
11401426 45 14345794963512511458
11806522 49 18338519745630856377
12815109 37 18412543206740993445
13464514 151 7925370527324961713
13675066 3 8502651498070070092
15375462 6 18337110056102744022
17834072 14 16805046224416373236
17834072 8 10953731205904877122
18186145 218 16081383933169914672
18511873 20 8862939459749000156
200 152 17894348878159500640
20671657 53 18335143120011043541
20871999 31 18187357732293900493
21501502 16 18196093239927351344
22213442 358 18409168839693794493
22485316 2 18335137575002269715
23402539 116 18260827090128684588
23532345 42 18338226171678519208
23557571 272 18269277872102129204
23559900 14 18191016820912704882
25 1 8935006953412401177
474229 33 18272651264265708862
5283173 99 17896868881538616453
58051976 378 18271808999582508710
81228 2 17974586709923042249
9882013 296 18202003213774114022

> <PUBCHEM_SHAPE_MULTIPOLES>
296.95
8.45
2
1.06
1.88
0.52
0
-2.74
0.08
-0.63
-0.28
-0.33
-0.05
0.14

> <PUBCHEM_SHAPE_SELFOVERLAP>
564.481

> <PUBCHEM_SHAPE_VOLUME>
184.3

> <PUBCHEM_COORDINATE_TYPE>
2
5
10

$$$$
