70813
  -OEChem-02172602573D

 22 23  0     0  0  0  0  0  0999 V2000
    0.1136   -0.8274    0.2783 S   0  0  0  0  0  0  0  0  0  0  0  0
   -3.6984    1.0653    0.3890 S   0  0  0  0  0  0  0  0  0  0  0  0
   -1.1177    0.3134   -0.0606 C   0  0  0  0  0  0  0  0  0  0  0  0
   -2.4847   -0.0659   -0.0348 C   0  0  0  0  0  0  0  0  0  0  0  0
   -0.6040    1.5607   -0.3406 C   0  0  0  0  0  0  0  0  0  0  0  0
   -3.0114   -1.3059   -0.3223 C   0  0  0  0  0  0  0  0  0  0  0  0
    0.8192    1.5797   -0.2763 C   0  0  0  0  0  0  0  0  0  0  0  0
    1.3390    0.3467    0.0504 C   0  0  0  0  0  0  0  0  0  0  0  0
   -4.4301   -1.3275   -0.1932 C   0  0  0  0  0  0  0  0  0  0  0  0
   -4.9337   -0.1034    0.1882 C   0  0  0  0  0  0  0  0  0  0  0  0
    2.7270    0.0568    0.1880 C   0  0  0  0  0  0  0  0  0  0  0  0
    3.9048   -0.1889    0.3035 C   0  0  0  0  0  0  0  0  0  0  0  0
    5.2874   -0.4781    0.4447 C   0  0  0  0  0  0  0  0  0  0  0  0
    6.0890   -0.6255   -0.6144 C   0  0  0  0  0  0  0  0  0  0  0  0
   -1.1984    2.4308   -0.5908 H   0  0  0  0  0  0  0  0  0  0  0  0
   -2.4296   -2.1692   -0.6213 H   0  0  0  0  0  0  0  0  0  0  0  0
    1.4224    2.4596   -0.4643 H   0  0  0  0  0  0  0  0  0  0  0  0
   -5.0502   -2.1961   -0.3728 H   0  0  0  0  0  0  0  0  0  0  0  0
   -5.9680    0.1607    0.3580 H   0  0  0  0  0  0  0  0  0  0  0  0
    5.6931   -0.5801    1.4457 H   0  0  0  0  0  0  0  0  0  0  0  0
    7.1421   -0.8464   -0.4765 H   0  0  0  0  0  0  0  0  0  0  0  0
    5.7217   -0.5312   -1.6312 H   0  0  0  0  0  0  0  0  0  0  0  0
  1  3  1  0  0  0  0
  1  8  1  0  0  0  0
  2  4  1  0  0  0  0
  2 10  1  0  0  0  0
  3  4  1  0  0  0  0
  3  5  2  0  0  0  0
  4  6  2  0  0  0  0
  5  7  1  0  0  0  0
  5 15  1  0  0  0  0
  6  9  1  0  0  0  0
  6 16  1  0  0  0  0
  7  8  2  0  0  0  0
  7 17  1  0  0  0  0
  8 11  1  0  0  0  0
  9 10  2  0  0  0  0
  9 18  1  0  0  0  0
 10 19  1  0  0  0  0
 11 12  3  0  0  0  0
 12 13  1  0  0  0  0
 13 14  2  0  0  0  0
 13 20  1  0  0  0  0
 14 21  1  0  0  0  0
 14 22  1  0  0  0  0
M  END
> <PUBCHEM_COMPOUND_CID>
70813

> <PUBCHEM_CONFORMER_RMSD>
0.4

> <PUBCHEM_CONFORMER_DIVERSEORDER>
2
6
1
3
5
4

> <PUBCHEM_MMFF94_PARTIAL_CHARGES>
22
1 -0.08
10 -0.11
11 -0.02
12 -0.06
13 -0.09
14 -0.3
15 0.15
16 0.15
17 0.15
18 0.15
19 0.15
2 -0.08
20 0.15
21 0.15
22 0.15
3 0.04
4 0.04
5 -0.15
6 -0.15
7 -0.15
8 0.06
9 -0.15

> <PUBCHEM_EFFECTIVE_ROTOR_COUNT>
1

> <PUBCHEM_PHARMACOPHORE_FEATURES>
3
1 14 hydrophobe
5 1 3 5 7 8 rings
5 2 4 6 9 10 rings

> <PUBCHEM_HEAVY_ATOM_COUNT>
14

> <PUBCHEM_ATOM_DEF_STEREO_COUNT>
0

> <PUBCHEM_ATOM_UDEF_STEREO_COUNT>
0

> <PUBCHEM_BOND_DEF_STEREO_COUNT>
0

> <PUBCHEM_BOND_UDEF_STEREO_COUNT>
0

> <PUBCHEM_ISOTOPIC_ATOM_COUNT>
0

> <PUBCHEM_COMPONENT_COUNT>
1

> <PUBCHEM_CACTVS_TAUTO_COUNT>
1

> <PUBCHEM_CONFORMER_ID>
0001149D00000002

> <PUBCHEM_MMFF94_ENERGY>
12.4014

> <PUBCHEM_FEATURE_SELFOVERLAP>
15.223

> <PUBCHEM_SHAPE_FINGERPRINT>
10465860 250 17418093234792569041
10968037 39 18260269663883007670
11046707 91 18409726266071184425
11128504 68 17676494960426732374
11315181 36 18272653454176621568
11401426 45 18408600361858753537
114248 4 14201398283248479242
12032990 46 18409166636048290128
12236239 1 17749109967999527876
12507557 5 12751233727310353755
12714333 28 14056719054471595246
13288520 33 18411419509709268511
13690532 89 18334574659287176530
13740256 8 18261959647045113946
13760787 5 17822299006182887181
13862211 1 18334570248503904994
14123238 8 16225766311593712906
14251718 22 12685096990159952896
14251731 8 18335417950251139877
14350574 20 17603871139011475571
14911166 2 17676487267560140722
17804303 29 18342738537302557001
17834072 33 18410295843628771860
17834072 8 18334569136397155589
1813 80 17895203168603209974
18186145 218 16588019164580466381
187816 3 17167864157929124704
19141452 34 18060416945281397359
19489759 90 16917068841541759545
200 152 17530682095868764144
20374829 77 18408037412105844226
20612939 158 17749677388629276724
21267235 1 18408891767443625699
2297311 6 18272660017561921900
23035841 295 18335985294446819298
23402539 116 18409443674376512244
23557571 272 18270687467800051788
23559900 14 18272079552093726760
26918003 58 17275386512263522411
335352 9 18409446982335079037
351380 180 8070024467735541390
351380 3 18261107474347570362
42 15 18273215317693071377
4214541 1 18413388717939499497
42788 4 18342175566317170498
4463277 17 18335139795511151612
49783359 22 17561078124593428143
5104073 3 18199194056560745457
68521 5 18334574599200462684

> <PUBCHEM_SHAPE_MULTIPOLES>
295.81
12.26
1.43
0.72
11.71
0.24
0
-4.14
-0.11
-0.97
-0.13
0.16
-0.01
-0.22

> <PUBCHEM_SHAPE_SELFOVERLAP>
604.392

> <PUBCHEM_SHAPE_VOLUME>
171

> <PUBCHEM_COORDINATE_TYPE>
2
5
10

$$$$
