120593
  -OEChem-02172602443D

 48 51  0     0  0  0  0  0  0999 V2000
    0.3313   -0.8249    0.6053 O   0  0  0  0  0  0  0  0  0  0  0  0
   -5.6397    0.7982    0.1130 O   0  0  0  0  0  0  0  0  0  0  0  0
   -3.6549    1.7696    1.7826 O   0  0  0  0  0  0  0  0  0  0  0  0
   -5.1419   -1.4288   -1.4575 O   0  0  0  0  0  0  0  0  0  0  0  0
   -0.4887   -2.9269    0.1151 O   0  0  0  0  0  0  0  0  0  0  0  0
    1.5679   -1.4836    0.6477 N   0  0  0  0  0  0  0  0  0  0  0  0
    4.5317    0.2946   -0.2351 C   0  0  0  0  0  0  0  0  0  0  0  0
    3.5083    1.3041   -0.4071 C   0  0  0  0  0  0  0  0  0  0  0  0
    3.9311   -0.9031    0.1901 C   0  0  0  0  0  0  0  0  0  0  0  0
    2.2538    0.7504   -0.0915 C   0  0  0  0  0  0  0  0  0  0  0  0
    2.4849   -0.6531    0.2928 C   0  0  0  0  0  0  0  0  0  0  0  0
    5.9025    0.3465   -0.4175 C   0  0  0  0  0  0  0  0  0  0  0  0
    3.5954    2.6266   -0.8062 C   0  0  0  0  0  0  0  0  0  0  0  0
    4.6451   -2.0577    0.4425 C   0  0  0  0  0  0  0  0  0  0  0  0
    1.0771    1.4702   -0.1592 C   0  0  0  0  0  0  0  0  0  0  0  0
    6.6491   -0.8115   -0.1679 C   0  0  0  0  0  0  0  0  0  0  0  0
    2.4152    3.3755   -0.8821 C   0  0  0  0  0  0  0  0  0  0  0  0
    6.0267   -2.0005    0.2574 C   0  0  0  0  0  0  0  0  0  0  0  0
    1.1699    2.8030   -0.5620 C   0  0  0  0  0  0  0  0  0  0  0  0
   -1.9643   -1.0615    0.2619 C   0  0  0  0  0  0  0  0  0  0  0  0
   -4.4240    0.1829    0.1617 C   0  0  0  0  0  0  0  0  0  0  0  0
   -3.4269    0.6752    1.0040 C   0  0  0  0  0  0  0  0  0  0  0  0
   -4.1771   -0.9387   -0.6299 C   0  0  0  0  0  0  0  0  0  0  0  0
   -2.1831    0.0460    1.0546 C   0  0  0  0  0  0  0  0  0  0  0  0
   -2.9332   -1.5680   -0.5792 C   0  0  0  0  0  0  0  0  0  0  0  0
   -0.6391   -1.7308    0.3140 C   0  0  0  0  0  0  0  0  0  0  0  0
   -6.0519    1.3174   -1.1492 C   0  0  0  0  0  0  0  0  0  0  0  0
   -3.3450    3.0423    1.2185 C   0  0  0  0  0  0  0  0  0  0  0  0
   -6.0203   -2.4137   -0.9169 C   0  0  0  0  0  0  0  0  0  0  0  0
    6.3992    1.2538   -0.7446 H   0  0  0  0  0  0  0  0  0  0  0  0
    4.5467    3.0840   -1.0566 H   0  0  0  0  0  0  0  0  0  0  0  0
    4.1631   -2.9713    0.7697 H   0  0  0  0  0  0  0  0  0  0  0  0
    0.0784    1.1387    0.0489 H   0  0  0  0  0  0  0  0  0  0  0  0
    7.7275   -0.7937   -0.3045 H   0  0  0  0  0  0  0  0  0  0  0  0
    2.4594    4.4160   -1.1937 H   0  0  0  0  0  0  0  0  0  0  0  0
    6.6323   -2.8835    0.4432 H   0  0  0  0  0  0  0  0  0  0  0  0
    0.2708    3.4099   -0.6328 H   0  0  0  0  0  0  0  0  0  0  0  0
   -1.4310    0.4283    1.7388 H   0  0  0  0  0  0  0  0  0  0  0  0
   -2.7442   -2.4385   -1.2013 H   0  0  0  0  0  0  0  0  0  0  0  0
   -5.2012    1.5745   -1.7900 H   0  0  0  0  0  0  0  0  0  0  0  0
   -6.7062    0.6012   -1.6538 H   0  0  0  0  0  0  0  0  0  0  0  0
   -6.6274    2.2296   -0.9658 H   0  0  0  0  0  0  0  0  0  0  0  0
   -3.5855    3.8121    1.9569 H   0  0  0  0  0  0  0  0  0  0  0  0
   -2.2784    3.1064    0.9807 H   0  0  0  0  0  0  0  0  0  0  0  0
   -3.9415    3.2223    0.3188 H   0  0  0  0  0  0  0  0  0  0  0  0
   -6.5684   -2.0128   -0.0584 H   0  0  0  0  0  0  0  0  0  0  0  0
   -6.7399   -2.6928   -1.6914 H   0  0  0  0  0  0  0  0  0  0  0  0
   -5.4596   -3.3061   -0.6215 H   0  0  0  0  0  0  0  0  0  0  0  0
  1  6  1  0  0  0  0
  1 26  1  0  0  0  0
  2 21  1  0  0  0  0
  2 27  1  0  0  0  0
  3 22  1  0  0  0  0
  3 28  1  0  0  0  0
  4 23  1  0  0  0  0
  4 29  1  0  0  0  0
  5 26  2  0  0  0  0
  6 11  2  0  0  0  0
  7  8  1  0  0  0  0
  7  9  1  0  0  0  0
  7 12  2  0  0  0  0
  8 10  1  0  0  0  0
  8 13  2  0  0  0  0
  9 11  1  0  0  0  0
  9 14  2  0  0  0  0
 10 11  1  0  0  0  0
 10 15  2  0  0  0  0
 12 16  1  0  0  0  0
 12 30  1  0  0  0  0
 13 17  1  0  0  0  0
 13 31  1  0  0  0  0
 14 18  1  0  0  0  0
 14 32  1  0  0  0  0
 15 19  1  0  0  0  0
 15 33  1  0  0  0  0
 16 18  2  0  0  0  0
 16 34  1  0  0  0  0
 17 19  2  0  0  0  0
 17 35  1  0  0  0  0
 18 36  1  0  0  0  0
 19 37  1  0  0  0  0
 20 24  2  0  0  0  0
 20 25  1  0  0  0  0
 20 26  1  0  0  0  0
 21 22  2  0  0  0  0
 21 23  1  0  0  0  0
 22 24  1  0  0  0  0
 23 25  2  0  0  0  0
 24 38  1  0  0  0  0
 25 39  1  0  0  0  0
 27 40  1  0  0  0  0
 27 41  1  0  0  0  0
 27 42  1  0  0  0  0
 28 43  1  0  0  0  0
 28 44  1  0  0  0  0
 28 45  1  0  0  0  0
 29 46  1  0  0  0  0
 29 47  1  0  0  0  0
 29 48  1  0  0  0  0
M  END
> <PUBCHEM_COMPOUND_CID>
120593

> <PUBCHEM_CONFORMER_RMSD>
0.8

> <PUBCHEM_CONFORMER_DIVERSEORDER>
1
53
21
29
55
58
28
74
81
50
52
60
77
69
79
51
2
24
23
32
27
56
54
7
68
61
73
18
66
43
76
63
10
40
84
22
70
33
13
31
75
25
37
19
38
30
26
83
64
62
9
12
8
57
44
34
35
48
42
17
59
15
80
14
82
41
49
39
4
45
78
67
65
11
71
20
46
5
16
72
36
3
47
6

> <PUBCHEM_MMFF94_PARTIAL_CHARGES>
37
1 -0.09
10 0.09
11 0.28
12 -0.15
13 -0.15
14 -0.15
15 -0.15
16 -0.15
17 -0.15
18 -0.15
19 -0.15
2 -0.36
20 0.09
21 0.08
22 0.08
23 0.08
24 -0.15
25 -0.15
26 0.63
27 0.28
28 0.28
29 0.28
3 -0.36
30 0.15
31 0.15
32 0.15
33 0.15
34 0.15
35 0.15
36 0.15
37 0.15
38 0.15
39 0.15
4 -0.36
5 -0.57
6 -0.51
9 0.09

> <PUBCHEM_EFFECTIVE_ROTOR_COUNT>
6

> <PUBCHEM_PHARMACOPHORE_FEATURES>
9
1 2 acceptor
1 3 acceptor
1 4 acceptor
1 5 acceptor
1 6 acceptor
5 7 8 9 10 11 rings
6 20 21 22 23 24 25 rings
6 7 9 12 14 16 18 rings
6 8 10 13 15 17 19 rings

> <PUBCHEM_HEAVY_ATOM_COUNT>
29

> <PUBCHEM_ATOM_DEF_STEREO_COUNT>
0

> <PUBCHEM_ATOM_UDEF_STEREO_COUNT>
0

> <PUBCHEM_BOND_DEF_STEREO_COUNT>
0

> <PUBCHEM_BOND_UDEF_STEREO_COUNT>
0

> <PUBCHEM_ISOTOPIC_ATOM_COUNT>
0

> <PUBCHEM_COMPONENT_COUNT>
1

> <PUBCHEM_CACTVS_TAUTO_COUNT>
1

> <PUBCHEM_CONFORMER_ID>
0001D71100000001

> <PUBCHEM_MMFF94_ENERGY>
141.0145

> <PUBCHEM_FEATURE_SELFOVERLAP>
45.865

> <PUBCHEM_SHAPE_FINGERPRINT>
10595046 47 18343021107801876778
10763959 59 17894908533678133084
10906281 52 18042139807602962400
11513181 2 17627798504960101693
11578080 2 17559097986610582024
12107183 9 18195817266698654856
12166972 35 18343018929931646200
12236239 1 18344145903659498618
12403260 363 18412828001352922921
12422481 6 17914897535445207310
13533116 47 18269554012507548148
13583140 156 17749114421453905315
13590594 115 18260552178158148372
14068700 675 18272087171898674208
14117953 113 18339921494656171069
14294032 229 17916311542085489225
14347329 18 15936955354194150030
14347332 77 18273213131924093455
14790565 3 18335432223097611192
15064981 113 17704077243969378620
15183329 4 18409731738376718094
15297060 5 17632015231237556681
15420108 30 17693382139810384537
16087824 20 18262237699323793284
16993438 75 17607520233083861309
17349148 13 18130795572331523490
17492 89 18120377811396769130
17818456 19 18273219694439020800
17844677 252 18336835289575247595
18335252 114 18262507114253259389
18681886 176 18342729754115743866
20028762 73 18343018866019274838
20511986 3 18270951436410741032
20612939 158 18187929529690197004
20775438 99 16763627849475144759
21033648 144 18187362194084504263
21033648 29 16805312323394216613
21033650 10 17416437344590520760
21133410 38 17048517411049244657
21298829 104 18268432330850038177
21709351 56 18409160009483705335
21792961 116 17313662647749095410
221357 26 18187918495629031046
23559900 14 18201710795009795625
24771293 8 18412545423588242304
3004659 81 18410006658963945984
335352 9 18335140895281008734
3388396 114 18125721437955545149
3633792 109 18334846256240046517
439807 62 18341612685553127055
474 4 18408044000812659827
57724786 102 17313394473078007732
6328613 192 18335150825604463428
6371009 1 18411414003535172184
9971528 1 18410289233900794296
9981440 41 17328301858445253864

> <PUBCHEM_SHAPE_MULTIPOLES>
562.48
16
3.45
1.1
1.61
1.66
-0.1
-4.12
3.04
-0.23
0.3
1.35
0.34
-2.47

> <PUBCHEM_SHAPE_SELFOVERLAP>
1250.295

> <PUBCHEM_SHAPE_VOLUME>
302.3

> <PUBCHEM_COORDINATE_TYPE>
2
5
10

$$$$
