76014
  -OEChem-02172602523D

 53 54  0     0  0  0  0  0  0999 V2000
   -5.2043    0.3777   -1.1022 O   0  0  0  0  0  0  0  0  0  0  0  0
    3.2633   -0.7711   -0.4866 O   0  0  0  0  0  0  0  0  0  0  0  0
   -2.8816    0.3834    0.5431 N   0  0  0  0  0  0  0  0  0  0  0  0
    1.2539   -2.7108    0.0450 C   0  0  0  0  0  0  0  0  0  0  0  0
    2.8869    2.0324   -0.2033 C   0  0  0  0  0  0  0  0  0  0  0  0
    1.0251   -1.2437    0.2032 C   0  0  0  0  0  0  0  0  0  0  0  0
    1.8105    1.0379    0.0839 C   0  0  0  0  0  0  0  0  0  0  0  0
   -0.4421    0.5706    0.7802 C   0  0  0  0  0  0  0  0  0  0  0  0
    2.0421   -0.3289   -0.0702 C   0  0  0  0  0  0  0  0  0  0  0  0
   -1.7897    1.0590    1.2410 C   0  0  0  0  0  0  0  0  0  0  0  0
   -0.2234   -0.7917    0.6305 C   0  0  0  0  0  0  0  0  0  0  0  0
    0.5621    1.4899    0.5113 C   0  0  0  0  0  0  0  0  0  0  0  0
   -2.7977    0.6157   -0.9056 C   0  0  0  0  0  0  0  0  0  0  0  0
   -4.1843    0.8357    1.0508 C   0  0  0  0  0  0  0  0  0  0  0  0
   -0.0654   -3.4490   -0.3384 C   0  0  0  0  0  0  0  0  0  0  0  0
    1.7822   -3.3453    1.3682 C   0  0  0  0  0  0  0  0  0  0  0  0
    2.2919   -3.1121   -1.0541 C   0  0  0  0  0  0  0  0  0  0  0  0
    2.3882    3.4895    0.0425 C   0  0  0  0  0  0  0  0  0  0  0  0
    3.3596    1.9394   -1.6865 C   0  0  0  0  0  0  0  0  0  0  0  0
    4.1834    1.8833    0.6586 C   0  0  0  0  0  0  0  0  0  0  0  0
   -3.9537   -0.0879   -1.6109 C   0  0  0  0  0  0  0  0  0  0  0  0
   -5.3072    0.1260    0.2997 C   0  0  0  0  0  0  0  0  0  0  0  0
   -1.8557    0.8616    2.3190 H   0  0  0  0  0  0  0  0  0  0  0  0
   -1.8694    2.1468    1.1119 H   0  0  0  0  0  0  0  0  0  0  0  0
   -1.0211   -1.4758    0.8948 H   0  0  0  0  0  0  0  0  0  0  0  0
    0.3169    2.5347    0.6543 H   0  0  0  0  0  0  0  0  0  0  0  0
   -1.8711    0.2303   -1.3421 H   0  0  0  0  0  0  0  0  0  0  0  0
   -2.8469    1.6918   -1.1192 H   0  0  0  0  0  0  0  0  0  0  0  0
   -4.2886    1.9208    0.9207 H   0  0  0  0  0  0  0  0  0  0  0  0
   -4.2746    0.6113    2.1197 H   0  0  0  0  0  0  0  0  0  0  0  0
    0.1278   -4.4999   -0.5872 H   0  0  0  0  0  0  0  0  0  0  0  0
   -0.7890   -3.4771    0.4834 H   0  0  0  0  0  0  0  0  0  0  0  0
   -0.5423   -2.9903   -1.2127 H   0  0  0  0  0  0  0  0  0  0  0  0
    1.0721   -3.1883    2.1886 H   0  0  0  0  0  0  0  0  0  0  0  0
    1.9341   -4.4251    1.2591 H   0  0  0  0  0  0  0  0  0  0  0  0
    2.7352   -2.8980    1.6721 H   0  0  0  0  0  0  0  0  0  0  0  0
    2.1836   -4.1722   -1.3183 H   0  0  0  0  0  0  0  0  0  0  0  0
    2.1408   -2.5439   -1.9792 H   0  0  0  0  0  0  0  0  0  0  0  0
    3.3331   -3.0240   -0.7303 H   0  0  0  0  0  0  0  0  0  0  0  0
    3.1856    4.2090   -0.1853 H   0  0  0  0  0  0  0  0  0  0  0  0
    1.5503    3.7576   -0.6121 H   0  0  0  0  0  0  0  0  0  0  0  0
    2.1121    3.6638    1.0894 H   0  0  0  0  0  0  0  0  0  0  0  0
    2.5050    2.0053   -2.3705 H   0  0  0  0  0  0  0  0  0  0  0  0
    4.0396    2.7642   -1.9318 H   0  0  0  0  0  0  0  0  0  0  0  0
    3.8957    1.0142   -1.9149 H   0  0  0  0  0  0  0  0  0  0  0  0
    4.8934    2.6933    0.4545 H   0  0  0  0  0  0  0  0  0  0  0  0
    3.9370    1.9130    1.7264 H   0  0  0  0  0  0  0  0  0  0  0  0
    4.7087    0.9426    0.4715 H   0  0  0  0  0  0  0  0  0  0  0  0
   -3.8941   -1.1773   -1.4974 H   0  0  0  0  0  0  0  0  0  0  0  0
   -3.9280    0.1353   -2.6824 H   0  0  0  0  0  0  0  0  0  0  0  0
   -6.2778    0.5051    0.6354 H   0  0  0  0  0  0  0  0  0  0  0  0
   -5.2935   -0.9559    0.4795 H   0  0  0  0  0  0  0  0  0  0  0  0
    3.6594   -1.2373    0.2708 H   0  0  0  0  0  0  0  0  0  0  0  0
  1 21  1  0  0  0  0
  1 22  1  0  0  0  0
  2  9  1  0  0  0  0
  2 53  1  0  0  0  0
  3 10  1  0  0  0  0
  3 13  1  0  0  0  0
  3 14  1  0  0  0  0
  4  6  1  0  0  0  0
  4 15  1  0  0  0  0
  4 16  1  0  0  0  0
  4 17  1  0  0  0  0
  5  7  1  0  0  0  0
  5 18  1  0  0  0  0
  5 19  1  0  0  0  0
  5 20  1  0  0  0  0
  6  9  2  0  0  0  0
  6 11  1  0  0  0  0
  7  9  1  0  0  0  0
  7 12  2  0  0  0  0
  8 10  1  0  0  0  0
  8 11  2  0  0  0  0
  8 12  1  0  0  0  0
 10 23  1  0  0  0  0
 10 24  1  0  0  0  0
 11 25  1  0  0  0  0
 12 26  1  0  0  0  0
 13 21  1  0  0  0  0
 13 27  1  0  0  0  0
 13 28  1  0  0  0  0
 14 22  1  0  0  0  0
 14 29  1  0  0  0  0
 14 30  1  0  0  0  0
 15 31  1  0  0  0  0
 15 32  1  0  0  0  0
 15 33  1  0  0  0  0
 16 34  1  0  0  0  0
 16 35  1  0  0  0  0
 16 36  1  0  0  0  0
 17 37  1  0  0  0  0
 17 38  1  0  0  0  0
 17 39  1  0  0  0  0
 18 40  1  0  0  0  0
 18 41  1  0  0  0  0
 18 42  1  0  0  0  0
 19 43  1  0  0  0  0
 19 44  1  0  0  0  0
 19 45  1  0  0  0  0
 20 46  1  0  0  0  0
 20 47  1  0  0  0  0
 20 48  1  0  0  0  0
 21 49  1  0  0  0  0
 21 50  1  0  0  0  0
 22 51  1  0  0  0  0
 22 52  1  0  0  0  0
M  END
> <PUBCHEM_COMPOUND_CID>
76014

> <PUBCHEM_CONFORMER_RMSD>
0.8

> <PUBCHEM_CONFORMER_DIVERSEORDER>
1
4
3
5
2

> <PUBCHEM_MMFF94_PARTIAL_CHARGES>
19
1 -0.56
10 0.41
11 -0.15
12 -0.15
13 0.27
14 0.27
2 -0.53
21 0.28
22 0.28
25 0.15
26 0.15
3 -0.81
4 0.14
5 0.14
53 0.45
6 -0.14
7 -0.14
8 -0.14
9 0.08

> <PUBCHEM_EFFECTIVE_ROTOR_COUNT>
5.2

> <PUBCHEM_PHARMACOPHORE_FEATURES>
7
1 1 acceptor
1 2 donor
1 3 cation
4 4 15 16 17 hydrophobe
4 5 18 19 20 hydrophobe
6 1 3 13 14 21 22 rings
6 6 7 8 9 11 12 rings

> <PUBCHEM_HEAVY_ATOM_COUNT>
22

> <PUBCHEM_ATOM_DEF_STEREO_COUNT>
0

> <PUBCHEM_ATOM_UDEF_STEREO_COUNT>
0

> <PUBCHEM_BOND_DEF_STEREO_COUNT>
0

> <PUBCHEM_BOND_UDEF_STEREO_COUNT>
0

> <PUBCHEM_ISOTOPIC_ATOM_COUNT>
0

> <PUBCHEM_COMPONENT_COUNT>
1

> <PUBCHEM_CACTVS_TAUTO_COUNT>
2

> <PUBCHEM_CONFORMER_ID>
000128EE00000001

> <PUBCHEM_MMFF94_ENERGY>
88.7165

> <PUBCHEM_FEATURE_SELFOVERLAP>
35.52

> <PUBCHEM_SHAPE_FINGERPRINT>
10090160 65 18411697711931813193
10411042 1 17906457619143871082
10693767 8 18059299755900664350
10764073 3 14639597544197772464
10930396 42 18262219047335400666
1100329 8 18410572894852880602
11069576 57 17915154872558080567
11582403 64 17678999715943732297
11725454 13 17603855754306908569
12160290 23 17690019133515321642
12236239 1 17846782901699676665
12553582 1 17834404423278749619
12730499 353 18334583460197386243
12788726 201 17275113795627170073
13009979 54 17486780675177870507
13052359 8 18122058968975198674
13083527 12 18120074114369447938
13134695 92 17971745584587496270
13140716 1 18337674212947309154
133893 2 18190197697297212920
13583140 156 17386278925682574328
13836976 161 18409166618979184446
13911987 19 18191598642652394245
15502722 9 18408884014642385049
15537594 2 17917709150186614807
15842332 3 17916596315195773025
16945 1 18337401426594323650
17134986 127 18264214784496975996
17138139 8 17555707131147127559
17349148 13 18412537700324122496
1813 80 17911524194393960791
19784866 34 18341610481528022609
20645477 70 18408889508021646947
21054139 6 18128522950590091199
21452121 199 18121206585291176474
21524375 3 18261674886719043880
22182313 1 18195272093973366122
2255824 54 18340488867861332763
22907989 373 17471587992882836436
23114952 82 18187360974614738845
235170 7 18040425604107320749
23557571 272 16878237394016275681
23559900 14 18266454317952337091
23566358 2 18199198453895794638
23598291 2 17987248724503958233
238 59 18410301310583959171
257057 1 17687461261405179370
266924 1 17917160385824617081
2748010 2 18193300665429789442
3060560 45 18409169939289961420
312423 11 18128828456199051153
33824 294 18410294700655631923
352729 6 18196665205312584664
4340502 62 18342174526597624209
4409770 3 17619341452224212830
46194498 28 18261384491527750653
474 4 18410855503157384961
5281201 14 18187926106717482149
53917941 68 18052526961731133164
6025842 7 18411132533454477695
603831 33 17988922271575179081
6287921 2 18260556623427727261
633830 44 18129397027869575941
7364860 26 18340774732521161626
7471813 234 18198621030086604280
81228 2 17400648619539915344
81539 233 18260830418538428555
8272917 22 18340773650368822317

> <PUBCHEM_SHAPE_MULTIPOLES>
436.03
8.51
4.03
1.32
11.58
3.09
-0.26
-4.63
-1.72
-5.2
0.03
0.41
0.01
-0.44

> <PUBCHEM_SHAPE_SELFOVERLAP>
903.313

> <PUBCHEM_SHAPE_VOLUME>
252.7

> <PUBCHEM_COORDINATE_TYPE>
2
5
10

$$$$
