108031
  -OEChem-02172602513D

 67 70  0     1  0  0  0  0  0999 V2000
   -0.8662   -5.1372   -1.3407 Cl  0  0  0  0  0  0  0  0  0  0  0  0
    3.1509    4.1594    0.5323 Cl  0  0  0  0  0  0  0  0  0  0  0  0
    8.6341    1.3650    1.0286 Cl  0  0  0  0  0  0  0  0  0  0  0  0
   -3.3188   -0.6492   -1.8948 O   0  0  0  0  0  0  0  0  0  0  0  0
   -4.4176    0.4896    0.3045 N   0  0  0  0  0  0  0  0  0  0  0  0
   -3.0688   -0.0537    0.4481 C   0  0  0  0  0  0  0  0  0  0  0  0
   -2.3679   -0.2033   -0.9176 C   0  0  1  0  0  0  0  0  0  0  0  0
   -1.2326   -1.1664   -0.8675 C   0  0  0  0  0  0  0  0  0  0  0  0
    0.0780   -0.7958   -0.6098 C   0  0  0  0  0  0  0  0  0  0  0  0
   -5.2446    0.1184    1.4527 C   0  0  0  0  0  0  0  0  0  0  0  0
   -4.3710    1.9445    0.1585 C   0  0  0  0  0  0  0  0  0  0  0  0
    1.1041   -1.7719   -0.5778 C   0  0  0  0  0  0  0  0  0  0  0  0
    0.6472    0.5214   -0.3442 C   0  0  0  0  0  0  0  0  0  0  0  0
    2.3529   -1.0368   -0.2823 C   0  0  0  0  0  0  0  0  0  0  0  0
    2.0439    0.4026   -0.1388 C   0  0  0  0  0  0  0  0  0  0  0  0
   -5.7020   -1.3340    1.3298 C   0  0  0  0  0  0  0  0  0  0  0  0
   -5.6381    2.4496   -0.5294 C   0  0  0  0  0  0  0  0  0  0  0  0
   -1.5087   -2.5184   -1.0922 C   0  0  0  0  0  0  0  0  0  0  0  0
    0.8369   -3.1120   -0.7994 C   0  0  0  0  0  0  0  0  0  0  0  0
   -6.5512   -1.7495    2.5316 C   0  0  0  0  0  0  0  0  0  0  0  0
   -5.6196    3.9719   -0.6728 C   0  0  0  0  0  0  0  0  0  0  0  0
   -0.4849   -3.4805   -1.0585 C   0  0  0  0  0  0  0  0  0  0  0  0
    0.0333    1.7624   -0.2774 C   0  0  0  0  0  0  0  0  0  0  0  0
    2.8332    1.5070    0.1321 C   0  0  0  0  0  0  0  0  0  0  0  0
    3.5676   -1.5852   -0.1642 C   0  0  0  0  0  0  0  0  0  0  0  0
    0.8253    2.8816   -0.0042 C   0  0  0  0  0  0  0  0  0  0  0  0
    2.2101    2.7551    0.1982 C   0  0  0  0  0  0  0  0  0  0  0  0
   -7.0400   -3.1832    2.3998 C   0  0  0  0  0  0  0  0  0  0  0  0
   -6.8613    4.4795   -1.3885 C   0  0  0  0  0  0  0  0  0  0  0  0
    4.8146   -0.8594    0.1293 C   0  0  0  0  0  0  0  0  0  0  0  0
    5.6034   -0.3772   -0.9153 C   0  0  0  0  0  0  0  0  0  0  0  0
    5.2072   -0.6538    1.4519 C   0  0  0  0  0  0  0  0  0  0  0  0
    6.7846    0.3104   -0.6373 C   0  0  0  0  0  0  0  0  0  0  0  0
    6.3885    0.0337    1.7300 C   0  0  0  0  0  0  0  0  0  0  0  0
    7.1772    0.5158    0.6853 C   0  0  0  0  0  0  0  0  0  0  0  0
   -2.4550    0.5379    1.1405 H   0  0  0  0  0  0  0  0  0  0  0  0
   -3.1064   -1.0527    0.8959 H   0  0  0  0  0  0  0  0  0  0  0  0
   -2.0615    0.7461   -1.3436 H   0  0  0  0  0  0  0  0  0  0  0  0
   -4.7045    0.2762    2.3960 H   0  0  0  0  0  0  0  0  0  0  0  0
   -6.1489    0.7337    1.5151 H   0  0  0  0  0  0  0  0  0  0  0  0
   -4.2240    2.4399    1.1274 H   0  0  0  0  0  0  0  0  0  0  0  0
   -3.5265    2.2467   -0.4721 H   0  0  0  0  0  0  0  0  0  0  0  0
   -4.8590   -2.0280    1.2543 H   0  0  0  0  0  0  0  0  0  0  0  0
   -6.2911   -1.4534    0.4111 H   0  0  0  0  0  0  0  0  0  0  0  0
   -6.5388    2.1673    0.0258 H   0  0  0  0  0  0  0  0  0  0  0  0
   -5.7222    1.9917   -1.5235 H   0  0  0  0  0  0  0  0  0  0  0  0
   -2.5275   -2.8527   -1.2797 H   0  0  0  0  0  0  0  0  0  0  0  0
    1.6289   -3.8533   -0.7731 H   0  0  0  0  0  0  0  0  0  0  0  0
   -7.4170   -1.0839    2.6254 H   0  0  0  0  0  0  0  0  0  0  0  0
   -5.9650   -1.6522    3.4529 H   0  0  0  0  0  0  0  0  0  0  0  0
   -4.7309    4.2831   -1.2341 H   0  0  0  0  0  0  0  0  0  0  0  0
   -5.5584    4.4383    0.3173 H   0  0  0  0  0  0  0  0  0  0  0  0
   -1.0228    1.9459   -0.3718 H   0  0  0  0  0  0  0  0  0  0  0  0
    3.8984    1.4621    0.2914 H   0  0  0  0  0  0  0  0  0  0  0  0
   -4.0612   -0.0213   -1.8909 H   0  0  0  0  0  0  0  0  0  0  0  0
    3.7034   -2.6572   -0.2875 H   0  0  0  0  0  0  0  0  0  0  0  0
    0.3498    3.8581    0.0601 H   0  0  0  0  0  0  0  0  0  0  0  0
   -7.6565   -3.3068    1.5037 H   0  0  0  0  0  0  0  0  0  0  0  0
   -7.6453   -3.4586    3.2691 H   0  0  0  0  0  0  0  0  0  0  0  0
   -6.1986   -3.8807    2.3373 H   0  0  0  0  0  0  0  0  0  0  0  0
   -6.9346    4.0560   -2.3952 H   0  0  0  0  0  0  0  0  0  0  0  0
   -6.8267    5.5696   -1.4803 H   0  0  0  0  0  0  0  0  0  0  0  0
   -7.7686    4.2138   -0.8366 H   0  0  0  0  0  0  0  0  0  0  0  0
    5.3100   -0.5295   -1.9511 H   0  0  0  0  0  0  0  0  0  0  0  0
    4.6028   -1.0236    2.2766 H   0  0  0  0  0  0  0  0  0  0  0  0
    7.3889    0.6810   -1.4613 H   0  0  0  0  0  0  0  0  0  0  0  0
    6.6817    0.1870    2.7654 H   0  0  0  0  0  0  0  0  0  0  0  0
  1 22  1  0  0  0  0
  2 27  1  0  0  0  0
  3 35  1  0  0  0  0
  4  7  1  0  0  0  0
  4 55  1  0  0  0  0
  5  6  1  0  0  0  0
  5 10  1  0  0  0  0
  5 11  1  0  0  0  0
  6  7  1  0  0  0  0
  6 36  1  0  0  0  0
  6 37  1  0  0  0  0
  7  8  1  0  0  0  0
  7 38  1  0  0  0  0
  8  9  1  0  0  0  0
  8 18  2  0  0  0  0
  9 12  2  0  0  0  0
  9 13  1  0  0  0  0
 10 16  1  0  0  0  0
 10 39  1  0  0  0  0
 10 40  1  0  0  0  0
 11 17  1  0  0  0  0
 11 41  1  0  0  0  0
 11 42  1  0  0  0  0
 12 14  1  0  0  0  0
 12 19  1  0  0  0  0
 13 15  2  0  0  0  0
 13 23  1  0  0  0  0
 14 15  1  0  0  0  0
 14 25  2  3  0  0  0
 15 24  1  0  0  0  0
 16 20  1  0  0  0  0
 16 43  1  0  0  0  0
 16 44  1  0  0  0  0
 17 21  1  0  0  0  0
 17 45  1  0  0  0  0
 17 46  1  0  0  0  0
 18 22  1  0  0  0  0
 18 47  1  0  0  0  0
 19 22  2  0  0  0  0
 19 48  1  0  0  0  0
 20 28  1  0  0  0  0
 20 49  1  0  0  0  0
 20 50  1  0  0  0  0
 21 29  1  0  0  0  0
 21 51  1  0  0  0  0
 21 52  1  0  0  0  0
 23 26  2  0  0  0  0
 23 53  1  0  0  0  0
 24 27  2  0  0  0  0
 24 54  1  0  0  0  0
 25 30  1  0  0  0  0
 25 56  1  0  0  0  0
 26 27  1  0  0  0  0
 26 57  1  0  0  0  0
 28 58  1  0  0  0  0
 28 59  1  0  0  0  0
 28 60  1  0  0  0  0
 29 61  1  0  0  0  0
 29 62  1  0  0  0  0
 29 63  1  0  0  0  0
 30 31  2  0  0  0  0
 30 32  1  0  0  0  0
 31 33  1  0  0  0  0
 31 64  1  0  0  0  0
 32 34  2  0  0  0  0
 32 65  1  0  0  0  0
 33 35  2  0  0  0  0
 33 66  1  0  0  0  0
 34 35  1  0  0  0  0
 34 67  1  0  0  0  0
M  END
> <PUBCHEM_COMPOUND_CID>
108031

> <PUBCHEM_CONFORMER_RMSD>
1

> <PUBCHEM_CONFORMER_DIVERSEORDER>
4
25
15
48
46
56
45
37
2
43
31
47
28
50
51
33
19
24
58
55
41
44
52
42
53
57
30
6
7
35
1
38
21
29
10
5
39
26
9
23
8
32
49
27
36
54
11
17
34
22
18
20
3
40
12
13
14
16

> <PUBCHEM_MMFF94_PARTIAL_CHARGES>
38
1 -0.18
10 0.27
11 0.27
12 0.03
14 -0.06
15 0.03
18 -0.15
19 -0.15
2 -0.18
22 0.18
23 -0.15
24 -0.15
25 -0.18
26 -0.15
27 0.18
3 -0.18
30 0.03
31 -0.15
32 -0.15
33 -0.15
34 -0.15
35 0.18
4 -0.68
47 0.15
48 0.15
5 -0.81
53 0.15
54 0.15
55 0.4
56 0.15
57 0.15
6 0.27
64 0.15
65 0.15
66 0.15
67 0.15
7 0.42
8 -0.14

> <PUBCHEM_EFFECTIVE_ROTOR_COUNT>
10

> <PUBCHEM_PHARMACOPHORE_FEATURES>
9
1 28 hydrophobe
1 29 hydrophobe
1 4 acceptor
1 4 donor
1 5 cation
5 9 12 13 14 15 rings
6 13 15 23 24 26 27 rings
6 30 31 32 33 34 35 rings
6 8 9 12 18 19 22 rings

> <PUBCHEM_HEAVY_ATOM_COUNT>
35

> <PUBCHEM_ATOM_DEF_STEREO_COUNT>
0

> <PUBCHEM_ATOM_UDEF_STEREO_COUNT>
0

> <PUBCHEM_BOND_DEF_STEREO_COUNT>
0

> <PUBCHEM_BOND_UDEF_STEREO_COUNT>
1

> <PUBCHEM_ISOTOPIC_ATOM_COUNT>
0

> <PUBCHEM_COMPONENT_COUNT>
1

> <PUBCHEM_CACTVS_TAUTO_COUNT>
1

> <PUBCHEM_CONFORMER_ID>
0001A5FF00000004

> <PUBCHEM_MMFF94_ENERGY>
107.823

> <PUBCHEM_FEATURE_SELFOVERLAP>
45.827

> <PUBCHEM_SHAPE_FINGERPRINT>
10 15 18411138043307064770
10906281 52 18272093820797704990
1100329 8 18341891948304759860
11007060 377 18130213952250439519
11578080 2 17273129340047046434
12035758 1 18341331171510072322
12107698 1 18187652452701917107
13140716 1 18267860773860711606
13782708 43 17313106366808954907
14020679 6 18187084005254134770
14415360 78 18266999743944007661
14790565 3 18341618066762189636
14955137 171 18340500979721926614
15081414 286 18129673997488409750
15475509 8 17988097629601652724
19319366 153 18040426686518992994
20642791 178 18263926708677654132
21033648 29 18130206199575884528
21298829 104 18057883529295728761
23559900 14 18056181700402115280
24771293 8 18058998619275906448
3178227 256 18339371841277783242
4144715 1 18191319195374383883
4403749 210 18411694387985445071
5080951 261 17240480291986281255
5104073 3 18125151895463870034
6009941 240 18114743733363822705
7226269 152 17703790323279629936

> <PUBCHEM_SHAPE_MULTIPOLES>
715.04
20.04
5.54
1.69
5.19
0.64
0.81
8.9
10.4
-8.57
-1.96
-2.52
-1.15
4.67

> <PUBCHEM_SHAPE_SELFOVERLAP>
1503.072

> <PUBCHEM_SHAPE_VOLUME>
408.3

> <PUBCHEM_COORDINATE_TYPE>
2
5
10

$$$$
