521360
  -OEChem-03052615023D

 29 29  0     0  0  0  0  0  0999 V2000
   -4.3521    2.6292    0.0005 Cl  0  0  0  0  0  0  0  0  0  0  0  0
   -0.2246   -2.0721   -0.0539 S   0  0  0  0  0  0  0  0  0  0  0  0
    3.0803    0.0549   -0.4740 O   0  0  0  0  0  0  0  0  0  0  0  0
   -0.0356   -2.5225    1.3115 O   0  0  0  0  0  0  0  0  0  0  0  0
   -0.6575   -3.0002   -1.0808 O   0  0  0  0  0  0  0  0  0  0  0  0
    1.9344   -0.4093    1.4616 O   0  0  0  0  0  0  0  0  0  0  0  0
    1.1837   -1.2625   -0.5838 N   0  0  0  0  0  0  0  0  0  0  0  0
    3.5976    1.2854    0.0437 C   0  0  0  0  0  0  0  0  0  0  0  0
   -1.3918   -0.7448   -0.0379 C   0  0  0  0  0  0  0  0  0  0  0  0
    4.7272    1.7700   -0.8524 C   0  0  0  0  0  0  0  0  0  0  0  0
    2.4708    2.3030    0.1358 C   0  0  0  0  0  0  0  0  0  0  0  0
   -2.1297   -0.4806   -1.1786 C   0  0  0  0  0  0  0  0  0  0  0  0
   -1.5448    0.0065    1.1143 C   0  0  0  0  0  0  0  0  0  0  0  0
    2.0724   -0.5164    0.2490 C   0  0  0  0  0  0  0  0  0  0  0  0
   -3.0493    0.5682   -1.1668 C   0  0  0  0  0  0  0  0  0  0  0  0
   -2.4645    1.0551    1.1262 C   0  0  0  0  0  0  0  0  0  0  0  0
   -3.2166    1.3360   -0.0144 C   0  0  0  0  0  0  0  0  0  0  0  0
    4.0141    1.1006    1.0418 H   0  0  0  0  0  0  0  0  0  0  0  0
    1.4169   -1.3319   -1.5825 H   0  0  0  0  0  0  0  0  0  0  0  0
    5.1643    2.7001   -0.4768 H   0  0  0  0  0  0  0  0  0  0  0  0
    5.5158    1.0125   -0.9146 H   0  0  0  0  0  0  0  0  0  0  0  0
    4.3703    1.9365   -1.8747 H   0  0  0  0  0  0  0  0  0  0  0  0
    2.8566    3.2870    0.4220 H   0  0  0  0  0  0  0  0  0  0  0  0
    1.7141    2.0245    0.8752 H   0  0  0  0  0  0  0  0  0  0  0  0
    1.9533    2.4010   -0.8252 H   0  0  0  0  0  0  0  0  0  0  0  0
   -2.0084   -1.0607   -2.0881 H   0  0  0  0  0  0  0  0  0  0  0  0
   -0.9651   -0.1933    2.0101 H   0  0  0  0  0  0  0  0  0  0  0  0
   -3.6274    0.7768   -2.0634 H   0  0  0  0  0  0  0  0  0  0  0  0
   -2.5835    1.6458    2.0308 H   0  0  0  0  0  0  0  0  0  0  0  0
  1 17  1  0  0  0  0
  2  4  2  0  0  0  0
  2  5  2  0  0  0  0
  2  7  1  0  0  0  0
  2  9  1  0  0  0  0
  3  8  1  0  0  0  0
  3 14  1  0  0  0  0
  6 14  2  0  0  0  0
  7 14  1  0  0  0  0
  7 19  1  0  0  0  0
  8 10  1  0  0  0  0
  8 11  1  0  0  0  0
  8 18  1  0  0  0  0
  9 12  2  0  0  0  0
  9 13  1  0  0  0  0
 10 20  1  0  0  0  0
 10 21  1  0  0  0  0
 10 22  1  0  0  0  0
 11 23  1  0  0  0  0
 11 24  1  0  0  0  0
 11 25  1  0  0  0  0
 12 15  1  0  0  0  0
 12 26  1  0  0  0  0
 13 16  2  0  0  0  0
 13 27  1  0  0  0  0
 15 17  2  0  0  0  0
 15 28  1  0  0  0  0
 16 17  1  0  0  0  0
 16 29  1  0  0  0  0
M  END
> <PUBCHEM_COMPOUND_CID>
521360

> <PUBCHEM_CONFORMER_RMSD>
0.6

> <PUBCHEM_CONFORMER_DIVERSEORDER>
1
63
26
57
31
39
44
62
10
14
54
19
15
36
6
9
22
56
21
45
12
55
58
28
66
38
49
41
18
8
13
48
20
17
16
65
5
11
27
64
46
7
59
60
47
37
50
40
34
61
42
51
35
33
23
32
43
2
53
52
29
30
4
3
25
24

> <PUBCHEM_MMFF94_PARTIAL_CHARGES>
20
1 -0.18
12 -0.15
13 -0.15
14 0.96
15 -0.15
16 -0.15
17 0.18
19 0.42
2 1.45
26 0.15
27 0.15
28 0.15
29 0.15
3 -0.43
4 -0.65
5 -0.65
6 -0.57
7 -0.79
8 0.28
9 -0.01

> <PUBCHEM_EFFECTIVE_ROTOR_COUNT>
5

> <PUBCHEM_PHARMACOPHORE_FEATURES>
6
1 4 acceptor
1 5 acceptor
1 6 acceptor
1 7 donor
3 8 10 11 hydrophobe
6 9 12 13 15 16 17 rings

> <PUBCHEM_HEAVY_ATOM_COUNT>
17

> <PUBCHEM_ATOM_DEF_STEREO_COUNT>
0

> <PUBCHEM_ATOM_UDEF_STEREO_COUNT>
0

> <PUBCHEM_BOND_DEF_STEREO_COUNT>
0

> <PUBCHEM_BOND_UDEF_STEREO_COUNT>
0

> <PUBCHEM_ISOTOPIC_ATOM_COUNT>
0

> <PUBCHEM_COMPONENT_COUNT>
1

> <PUBCHEM_CACTVS_TAUTO_COUNT>
2

> <PUBCHEM_CONFORMER_ID>
0007F49000000001

> <PUBCHEM_MMFF94_ENERGY>
19.6927

> <PUBCHEM_FEATURE_SELFOVERLAP>
30.466

> <PUBCHEM_SHAPE_FINGERPRINT>
10498660 4 18272087188582729233
10681291 71 18339655480875994529
11640471 11 18261657247188093370
11725454 13 16518183568057997703
12173636 292 18341324595582586111
122479 349 18334861636153981586
12788726 201 18120078739807216947
13134695 92 17539963979483263827
13618510 140 18412266112124951272
14123255 52 18410014325196148324
14142880 1 18260824955714574685
14251764 75 18339094700103331577
15342168 16 18335986376636263757
15775835 57 18334573546832780580
17134986 127 18341333275516513719
1741750 31 18410008883815125050
17834072 32 18409453604557827948
18186145 218 18201166468187498038
19765921 60 18340760460413532363
20304884 271 18340205292698063040
20645476 183 18412819209449515891
20671657 1 18339631283520606082
21041028 32 17324917063042931714
21475661 188 17536023364702011397
21524375 3 18408880733008094882
21731516 1 8862660247935257034
21864079 5 18410293592517522820
22182937 141 18337680831006647792
23557571 272 17910403006461698958
25 1 18411702054143502224
27216 239 18042132105534396473
4028521 119 18273498991735644804
474 4 18338795590142805897
5262128 65 15123499337389908689
58143232 49 9367347041825522888

> <PUBCHEM_SHAPE_MULTIPOLES>
327.11
7.62
3.06
1.23
3.52
0.77
-0.12
-8.14
1.39
-0.37
0.18
-0.31
0.28
-0.62

> <PUBCHEM_SHAPE_SELFOVERLAP>
646.348

> <PUBCHEM_SHAPE_VOLUME>
196

> <PUBCHEM_COORDINATE_TYPE>
2
5
10

$$$$
