5274571
  -OEChem-03052615033D

 56 61  0     1  0  0  0  0  0999 V2000
   -3.6937   -2.7256    1.5729 O   0  0  0  0  0  0  0  0  0  0  0  0
    4.3662   -2.1313    0.1612 O   0  0  0  0  0  0  0  0  0  0  0  0
    9.3718    1.6785   -0.2055 O   0  0  0  0  0  0  0  0  0  0  0  0
   -6.0412    0.9782   -1.3968 N   0  0  2  0  0  0  0  0  0  0  0  0
   -3.2867   -1.0483   -0.0264 N   0  0  0  0  0  0  0  0  0  0  0  0
    3.1538   -0.2600   -0.0519 N   0  0  0  0  0  0  0  0  0  0  0  0
    3.0241   -2.5311    0.1918 N   0  0  0  0  0  0  0  0  0  0  0  0
   -3.9190    0.0794   -0.7281 C   0  0  1  0  0  0  0  0  0  0  0  0
   -5.2644   -0.2672   -1.4329 C   0  0  1  0  0  0  0  0  0  0  0  0
   -4.3541    1.2297    0.1538 C   0  0  0  0  0  0  0  0  0  0  0  0
   -5.5724    1.7320   -0.3315 C   0  0  0  0  0  0  0  0  0  0  0  0
   -6.0206   -1.3448   -0.7157 C   0  0  0  0  0  0  0  0  0  0  0  0
   -4.0731   -1.9777    0.6714 C   0  0  0  0  0  0  0  0  0  0  0  0
   -7.3118    1.1662   -2.0498 C   0  0  0  0  0  0  0  0  0  0  0  0
   -3.7106    1.8142    1.2334 C   0  0  0  0  0  0  0  0  0  0  0  0
   -5.4980   -2.0810    0.2660 C   0  0  0  0  0  0  0  0  0  0  0  0
   -1.8370   -1.1311   -0.0045 C   0  0  0  0  0  0  0  0  0  0  0  0
   -6.1522    2.8442    0.2600 C   0  0  0  0  0  0  0  0  0  0  0  0
   -4.3022    2.9247    1.8360 C   0  0  0  0  0  0  0  0  0  0  0  0
   -5.5123    3.4386    1.3506 C   0  0  0  0  0  0  0  0  0  0  0  0
   -1.2200   -2.3696    0.1341 C   0  0  0  0  0  0  0  0  0  0  0  0
   -1.0786    0.0287   -0.1223 C   0  0  0  0  0  0  0  0  0  0  0  0
    0.1724   -2.4495    0.1552 C   0  0  0  0  0  0  0  0  0  0  0  0
    0.3138   -0.0514   -0.1012 C   0  0  0  0  0  0  0  0  0  0  0  0
    0.9393   -1.2905    0.0376 C   0  0  0  0  0  0  0  0  0  0  0  0
    2.3728   -1.3724    0.0604 C   0  0  0  0  0  0  0  0  0  0  0  0
    4.3531   -0.7803    0.0158 C   0  0  0  0  0  0  0  0  0  0  0  0
    5.6404   -0.1494   -0.0405 C   0  0  0  0  0  0  0  0  0  0  0  0
    6.8061   -0.9167    0.0524 C   0  0  0  0  0  0  0  0  0  0  0  0
    5.7400    1.2379   -0.1891 C   0  0  0  0  0  0  0  0  0  0  0  0
    8.0577   -0.3034   -0.0026 C   0  0  0  0  0  0  0  0  0  0  0  0
    6.9917    1.8511   -0.2443 C   0  0  0  0  0  0  0  0  0  0  0  0
    8.1506    1.0805   -0.1511 C   0  0  0  0  0  0  0  0  0  0  0  0
    9.3942    3.0971   -0.3582 C   0  0  0  0  0  0  0  0  0  0  0  0
   -3.2457    0.4672   -1.5042 H   0  0  0  0  0  0  0  0  0  0  0  0
   -5.0862   -0.5861   -2.4669 H   0  0  0  0  0  0  0  0  0  0  0  0
   -7.0547   -1.5222   -0.9998 H   0  0  0  0  0  0  0  0  0  0  0  0
   -7.4252    2.1993   -2.3947 H   0  0  0  0  0  0  0  0  0  0  0  0
   -8.1388    0.9304   -1.3721 H   0  0  0  0  0  0  0  0  0  0  0  0
   -7.3949    0.5176   -2.9282 H   0  0  0  0  0  0  0  0  0  0  0  0
   -2.7778    1.4303    1.6271 H   0  0  0  0  0  0  0  0  0  0  0  0
   -6.0995   -2.8334    0.7655 H   0  0  0  0  0  0  0  0  0  0  0  0
   -7.0918    3.2515   -0.0990 H   0  0  0  0  0  0  0  0  0  0  0  0
   -3.8202    3.3980    2.6871 H   0  0  0  0  0  0  0  0  0  0  0  0
   -5.9577    4.3066    1.8293 H   0  0  0  0  0  0  0  0  0  0  0  0
   -1.7817   -3.2969    0.1878 H   0  0  0  0  0  0  0  0  0  0  0  0
   -1.5095    1.0145   -0.2458 H   0  0  0  0  0  0  0  0  0  0  0  0
    0.6250   -3.4329    0.2561 H   0  0  0  0  0  0  0  0  0  0  0  0
    0.8843    0.8691   -0.1977 H   0  0  0  0  0  0  0  0  0  0  0  0
    6.7757   -1.9972    0.1685 H   0  0  0  0  0  0  0  0  0  0  0  0
    4.8498    1.8583   -0.2639 H   0  0  0  0  0  0  0  0  0  0  0  0
    8.9573   -0.9086    0.0703 H   0  0  0  0  0  0  0  0  0  0  0  0
    6.9914    2.9295   -0.3607 H   0  0  0  0  0  0  0  0  0  0  0  0
    8.9495    3.4063   -1.3102 H   0  0  0  0  0  0  0  0  0  0  0  0
   10.4453    3.4030   -0.3823 H   0  0  0  0  0  0  0  0  0  0  0  0
    8.9341    3.6013    0.4983 H   0  0  0  0  0  0  0  0  0  0  0  0
  1 13  2  0  0  0  0
  2  7  1  0  0  0  0
  2 27  1  0  0  0  0
  3 33  1  0  0  0  0
  3 34  1  0  0  0  0
  4  9  1  0  0  0  0
  4 11  1  0  0  0  0
  4 14  1  0  0  0  0
  5  8  1  0  0  0  0
  5 13  1  0  0  0  0
  5 17  1  0  0  0  0
  6 26  1  0  0  0  0
  6 27  2  0  0  0  0
  7 26  2  0  0  0  0
  8  9  1  0  0  0  0
  8 10  1  0  0  0  0
  8 35  1  0  0  0  0
  9 12  1  0  0  0  0
  9 36  1  0  0  0  0
 10 11  1  0  0  0  0
 10 15  2  0  0  0  0
 11 18  2  0  0  0  0
 12 16  2  0  0  0  0
 12 37  1  0  0  0  0
 13 16  1  0  0  0  0
 14 38  1  0  0  0  0
 14 39  1  0  0  0  0
 14 40  1  0  0  0  0
 15 19  1  0  0  0  0
 15 41  1  0  0  0  0
 16 42  1  0  0  0  0
 17 21  2  0  0  0  0
 17 22  1  0  0  0  0
 18 20  1  0  0  0  0
 18 43  1  0  0  0  0
 19 20  2  0  0  0  0
 19 44  1  0  0  0  0
 20 45  1  0  0  0  0
 21 23  1  0  0  0  0
 21 46  1  0  0  0  0
 22 24  2  0  0  0  0
 22 47  1  0  0  0  0
 23 25  2  0  0  0  0
 23 48  1  0  0  0  0
 24 25  1  0  0  0  0
 24 49  1  0  0  0  0
 25 26  1  0  0  0  0
 27 28  1  0  0  0  0
 28 29  2  0  0  0  0
 28 30  1  0  0  0  0
 29 31  1  0  0  0  0
 29 50  1  0  0  0  0
 30 32  2  0  0  0  0
 30 51  1  0  0  0  0
 31 33  2  0  0  0  0
 31 52  1  0  0  0  0
 32 33  1  0  0  0  0
 32 53  1  0  0  0  0
 34 54  1  0  0  0  0
 34 55  1  0  0  0  0
 34 56  1  0  0  0  0
M  END
> <PUBCHEM_COMPOUND_CID>
5274571

> <PUBCHEM_CONFORMER_RMSD>
0.8

> <PUBCHEM_CONFORMER_DIVERSEORDER>
1
12
5
22
10
2
11
6
13
21
7
17
14
9
20
8
4
3
15
18
16
19

> <PUBCHEM_MMFF94_PARTIAL_CHARGES>
48
1 -0.57
10 -0.14
11 0.1
12 -0.29
13 0.62
14 0.37
15 -0.15
16 -0.14
17 0.12
18 -0.15
19 -0.15
2 -0.02
20 -0.15
21 -0.15
22 -0.15
23 -0.15
24 -0.15
25 0.05
26 0.46
27 0.43
28 0.05
29 -0.15
3 -0.36
30 -0.15
31 -0.15
32 -0.15
33 0.08
34 0.28
37 0.15
4 -0.84
41 0.15
42 0.15
43 0.15
44 0.15
45 0.15
46 0.15
47 0.15
48 0.15
49 0.15
5 -0.48
50 0.15
51 0.15
52 0.15
53 0.15
6 -0.57
7 -0.41
8 0.44
9 0.51

> <PUBCHEM_EFFECTIVE_ROTOR_COUNT>
4.4

> <PUBCHEM_PHARMACOPHORE_FEATURES>
10
1 1 acceptor
1 3 acceptor
1 4 cation
3 6 7 26 cation
5 2 6 7 26 27 rings
5 4 8 9 10 11 rings
6 10 11 15 18 19 20 rings
6 17 21 22 23 24 25 rings
6 28 29 30 31 32 33 rings
6 5 8 9 12 13 16 rings

> <PUBCHEM_HEAVY_ATOM_COUNT>
34

> <PUBCHEM_ATOM_DEF_STEREO_COUNT>
0

> <PUBCHEM_ATOM_UDEF_STEREO_COUNT>
2

> <PUBCHEM_BOND_DEF_STEREO_COUNT>
0

> <PUBCHEM_BOND_UDEF_STEREO_COUNT>
0

> <PUBCHEM_ISOTOPIC_ATOM_COUNT>
0

> <PUBCHEM_COMPONENT_COUNT>
1

> <PUBCHEM_CACTVS_TAUTO_COUNT>
1

> <PUBCHEM_CONFORMER_ID>
00507BCB00000001

> <PUBCHEM_MMFF94_ENERGY>
125.067

> <PUBCHEM_FEATURE_SELFOVERLAP>
51.076

> <PUBCHEM_SHAPE_FINGERPRINT>
10 15 17821730511843236131
10454371 7 18059860528010292617
10625338 131 18410005560249332456
10625338 86 18343021129630122048
10669705 176 18341897390107776862
10835480 77 18335417959152492694
10930396 42 16443066093675061405
11007060 377 17749109989358826979
11315181 36 18410009944977898335
11387372 6 11455592332554285389
12013929 29 18127415549076380392
12082328 90 18202282493801179230
12133447 93 18337686278170119340
125118 31 18410012148702478384
12895837 130 18202282460237869493
13248334 5 18121780531037439922
13627175 4 11527948929013772692
14394314 77 18339929199633035345
15183329 4 18408317774955174160
15276724 80 18263358093182438588
15289351 153 18413666908299833488
15400415 2 18260828198600428202
15461852 350 17918270986714806726
15554971 5 18186797003113118086
15604295 49 18128531751854716136
1577012 14 18411702054697221530
16989713 51 16844713344567488495
16994733 274 18260546745451332784
17093844 174 17821728355637966643
1754908 1 12612754649287973364
19053607 189 18198893725954977224
19246450 95 11026064709428352159
20766409 102 18340778146978665601
21033648 144 18261387807137053375
21130935 74 18186238425363279290
21236236 1 18411982438747282411
21298829 104 18410015429757254012
23559900 14 18340756110091709265
23576562 1 17844516911235002500
24771293 8 18334861623855078036
25025965 108 11530779144906098561
3711267 37 18042416880164842596
3918712 181 18335976519802571508
397830 11 12396879851488169342
3986486 107 18269575918360108284
4073 2 18334861601721053170
4169191 19 18408321086216677940
437795 83 18273498974513467393
444769 64 9151177553725009789
445580 37 18202563968841004568
44802255 64 17346878961872936463
4516262 110 18265048030202061165
5104073 3 18041000609375273786
54039377 194 11023820704278402429
563151 97 18341328882393100623
5937810 71 18273222988626533896
6289498 60 17967806172692894780
6328613 192 18410573976994189240
636775 72 18408602560919647028
6691757 9 15502377867762709578
70634741 139 18334293189302057787
99344 41 18410012122516079684

> <PUBCHEM_SHAPE_MULTIPOLES>
662.17
27.88
3.66
1.17
55.9
1.45
-0.06
20.66
-5.46
-2.5
1.3
-2.82
0.51
-1.39

> <PUBCHEM_SHAPE_SELFOVERLAP>
1488.363

> <PUBCHEM_SHAPE_VOLUME>
351.7

> <PUBCHEM_COORDINATE_TYPE>
2
5
10

$$$$
