5280444
  -OEChem-03052615043D

 40 41  0     1  0  0  0  0  0999 V2000
   -3.4843   -0.4697   -1.8813 O   0  0  0  0  0  0  0  0  0  0  0  0
   -4.9361   -1.5438   -0.4992 O   0  0  0  0  0  0  0  0  0  0  0  0
    7.6951    0.3570   -0.3400 O   0  0  0  0  0  0  0  0  0  0  0  0
   -2.3003    1.0667    0.5516 N   0  0  0  0  0  0  0  0  0  0  0  0
   -0.2790    1.7392   -0.1058 N   0  0  0  0  0  0  0  0  0  0  0  0
    2.0612   -0.1952   -0.2683 N   0  0  0  0  0  0  0  0  0  0  0  0
   -1.8467   -1.2856    0.9533 N   0  0  0  0  0  0  0  0  0  0  0  0
   -6.0256    0.9335    0.1174 N   0  0  0  0  0  0  0  0  0  0  0  0
    0.4856   -1.8310    0.4854 N   0  0  0  0  0  0  0  0  0  0  0  0
   -3.7012    1.1364    0.8899 C   0  0  0  0  0  0  0  0  0  0  0  0
   -4.6248    0.8715   -0.3039 C   0  0  1  0  0  0  0  0  0  0  0  0
   -1.5014   -0.0404    0.5933 C   0  0  0  0  0  0  0  0  0  0  0  0
   -0.2526    0.3978    0.1825 C   0  0  0  0  0  0  0  0  0  0  0  0
   -1.5213    2.1096    0.1255 C   0  0  0  0  0  0  0  0  0  0  0  0
    0.7803   -0.5472    0.1299 C   0  0  0  0  0  0  0  0  0  0  0  0
    3.1617   -1.1237   -0.3416 C   0  0  0  0  0  0  0  0  0  0  0  0
   -4.4009   -0.5120   -0.8798 C   0  0  0  0  0  0  0  0  0  0  0  0
   -0.7834   -2.1142    0.8670 C   0  0  0  0  0  0  0  0  0  0  0  0
    4.3791   -0.4012   -0.8301 C   0  0  0  0  0  0  0  0  0  0  0  0
    5.3188    0.2204   -0.0914 C   0  0  0  0  0  0  0  0  0  0  0  0
    6.4659    0.9311   -0.7647 C   0  0  0  0  0  0  0  0  0  0  0  0
    5.3096    0.3008    1.4105 C   0  0  0  0  0  0  0  0  0  0  0  0
   -3.8874    2.1333    1.3085 H   0  0  0  0  0  0  0  0  0  0  0  0
   -3.8762    0.4124    1.6962 H   0  0  0  0  0  0  0  0  0  0  0  0
   -4.4716    1.6134   -1.0961 H   0  0  0  0  0  0  0  0  0  0  0  0
   -1.9113    3.1107    0.0016 H   0  0  0  0  0  0  0  0  0  0  0  0
    2.2151    0.7768   -0.5161 H   0  0  0  0  0  0  0  0  0  0  0  0
    2.9311   -1.9345   -1.0431 H   0  0  0  0  0  0  0  0  0  0  0  0
    3.3418   -1.5910    0.6325 H   0  0  0  0  0  0  0  0  0  0  0  0
   -6.2243    1.8596    0.4948 H   0  0  0  0  0  0  0  0  0  0  0  0
   -6.1844    0.2822    0.8861 H   0  0  0  0  0  0  0  0  0  0  0  0
   -0.9696   -3.1474    1.1398 H   0  0  0  0  0  0  0  0  0  0  0  0
    4.4835   -0.3814   -1.9144 H   0  0  0  0  0  0  0  0  0  0  0  0
    6.4612    1.9923   -0.4937 H   0  0  0  0  0  0  0  0  0  0  0  0
    6.4155    0.8583   -1.8562 H   0  0  0  0  0  0  0  0  0  0  0  0
    6.1474   -0.2668    1.8280 H   0  0  0  0  0  0  0  0  0  0  0  0
    5.4039    1.3435    1.7322 H   0  0  0  0  0  0  0  0  0  0  0  0
    4.3897   -0.0862    1.8559 H   0  0  0  0  0  0  0  0  0  0  0  0
   -3.3118   -1.3594   -2.2567 H   0  0  0  0  0  0  0  0  0  0  0  0
    8.4080    0.8540   -0.7762 H   0  0  0  0  0  0  0  0  0  0  0  0
  1 17  1  0  0  0  0
  1 39  1  0  0  0  0
  2 17  2  0  0  0  0
  3 21  1  0  0  0  0
  3 40  1  0  0  0  0
  4 10  1  0  0  0  0
  4 12  1  0  0  0  0
  4 14  1  0  0  0  0
  5 13  1  0  0  0  0
  5 14  2  0  0  0  0
  6 15  1  0  0  0  0
  6 16  1  0  0  0  0
  6 27  1  0  0  0  0
  7 12  2  0  0  0  0
  7 18  1  0  0  0  0
  8 11  1  0  0  0  0
  8 30  1  0  0  0  0
  8 31  1  0  0  0  0
  9 15  1  0  0  0  0
  9 18  2  0  0  0  0
 10 11  1  0  0  0  0
 10 23  1  0  0  0  0
 10 24  1  0  0  0  0
 11 17  1  0  0  0  0
 11 25  1  0  0  0  0
 12 13  1  0  0  0  0
 13 15  2  0  0  0  0
 14 26  1  0  0  0  0
 16 19  1  0  0  0  0
 16 28  1  0  0  0  0
 16 29  1  0  0  0  0
 18 32  1  0  0  0  0
 19 20  2  0  0  0  0
 19 33  1  0  0  0  0
 20 21  1  0  0  0  0
 20 22  1  0  0  0  0
 21 34  1  0  0  0  0
 21 35  1  0  0  0  0
 22 36  1  0  0  0  0
 22 37  1  0  0  0  0
 22 38  1  0  0  0  0
M  END
> <PUBCHEM_COMPOUND_CID>
5280444

> <PUBCHEM_CONFORMER_RMSD>
0.8

> <PUBCHEM_CONFORMER_DIVERSEORDER>
1
99
52
109
51
36
63
24
83
62
118
56
113
91
49
114
48
111
12
89
41
64
82
79
101
21
90
35
102
75
103
97
67
57
81
60
7
47
33
87
43
74
108
15
95
68
10
93
92
14
80
76
73
66
105
28
107
61
18
100
96
85
31
20
40
38
65
42
110
88
46
44
4
53
69
115
25
32
16
71
116
11
26
94
59
77
54
37
45
84
30
104
5
106
98
86
58
72
17
78
22
34
112
3
19
117
39
8
9
50
13
70
23
29
6
27
55
2

> <PUBCHEM_MMFF94_PARTIAL_CHARGES>
30
1 -0.65
10 0.26
11 0.33
12 0.11
13 0.23
14 0.04
15 0.41
16 0.51
17 0.66
18 0.47
19 -0.29
2 -0.57
20 -0.28
21 0.42
22 0.14
26 0.15
27 0.4
3 -0.68
30 0.36
31 0.36
32 0.15
33 0.15
39 0.5
4 0.05
40 0.4
5 -0.57
6 -0.87
7 -0.57
8 -0.99
9 -0.62

> <PUBCHEM_EFFECTIVE_ROTOR_COUNT>
7

> <PUBCHEM_PHARMACOPHORE_FEATURES>
15
1 1 acceptor
1 2 acceptor
1 22 hydrophobe
1 3 acceptor
1 3 donor
1 6 cation
1 6 donor
1 8 cation
1 8 donor
3 1 2 17 anion
3 4 5 14 cation
3 4 7 12 cation
3 7 9 18 cation
5 4 5 12 13 14 rings
6 7 9 12 13 15 18 rings

> <PUBCHEM_HEAVY_ATOM_COUNT>
22

> <PUBCHEM_ATOM_DEF_STEREO_COUNT>
1

> <PUBCHEM_ATOM_UDEF_STEREO_COUNT>
0

> <PUBCHEM_BOND_DEF_STEREO_COUNT>
1

> <PUBCHEM_BOND_UDEF_STEREO_COUNT>
0

> <PUBCHEM_ISOTOPIC_ATOM_COUNT>
0

> <PUBCHEM_COMPONENT_COUNT>
1

> <PUBCHEM_CACTVS_TAUTO_COUNT>
3

> <PUBCHEM_CONFORMER_ID>
005092BC00000001

> <PUBCHEM_MMFF94_ENERGY>
32.0563

> <PUBCHEM_FEATURE_SELFOVERLAP>
76.783

> <PUBCHEM_SHAPE_FINGERPRINT>
10366900 7 18343301479393725992
10906281 52 18338815453997148228
10968037 39 18201999920146166901
12236239 1 18270963445307962757
12596602 18 16878233043225143208
13288520 33 17132113554996015837
13533116 47 18114736041673345450
14123256 10 18273215296460945004
14528608 73 18131631197274443196
14787075 74 18413388730929825064
15461852 350 18130792309000183630
15537594 2 12031788037866868900
17349148 13 18261109677544291972
17980427 23 18336558178306292476
200 152 17632296778543142362
21267235 1 18271806874222699399
21403212 168 7853586716394269815
23402539 116 18410572877102655997
23559900 14 18342172319100875112
2767999 5 18113901559228207604
34797466 226 16558750122141743896
4325135 7 18202283597998164260
4340502 62 15936416610692285144
5486654 2 18411698777104463513
59755656 520 18186235143543839390

> <PUBCHEM_SHAPE_MULTIPOLES>
405.26
15.49
1.78
1.1
19.68
0.19
0.08
-3.56
2.99
-1.28
-0.26
-0.08
0.14
-0.46

> <PUBCHEM_SHAPE_SELFOVERLAP>
847.476

> <PUBCHEM_SHAPE_VOLUME>
226.9

> <PUBCHEM_COORDINATE_TYPE>
2
5
10

$$$$
