5281622
  -OEChem-03052615053D

 30 32  0     0  0  0  0  0  0999 V2000
    0.1440    1.5095    0.0006 O   0  0  0  0  0  0  0  0  0  0  0  0
   -4.5974    1.5248   -0.0005 O   0  0  0  0  0  0  0  0  0  0  0  0
   -2.3551   -2.6599   -0.0002 O   0  0  0  0  0  0  0  0  0  0  0  0
    0.2785   -2.5802    0.0008 O   0  0  0  0  0  0  0  0  0  0  0  0
    5.0814   -0.9758   -0.0010 O   0  0  0  0  0  0  0  0  0  0  0  0
    4.8710    1.7937   -0.0004 O   0  0  0  0  0  0  0  0  0  0  0  0
   -1.0501   -0.6209    0.0001 C   0  0  0  0  0  0  0  0  0  0  0  0
    1.4520   -0.5528    0.0002 C   0  0  0  0  0  0  0  0  0  0  0  0
   -1.0153    0.7733    0.0005 C   0  0  0  0  0  0  0  0  0  0  0  0
    1.3414    0.8374    0.0004 C   0  0  0  0  0  0  0  0  0  0  0  0
    0.2219   -1.3594    0.0002 C   0  0  0  0  0  0  0  0  0  0  0  0
   -2.2711   -1.3005   -0.0002 C   0  0  0  0  0  0  0  0  0  0  0  0
   -2.2111    1.4944    0.0004 C   0  0  0  0  0  0  0  0  0  0  0  0
    2.7081   -1.1652    0.0000 C   0  0  0  0  0  0  0  0  0  0  0  0
    2.4963    1.6223    0.0002 C   0  0  0  0  0  0  0  0  0  0  0  0
   -3.4327    0.8202    0.0001 C   0  0  0  0  0  0  0  0  0  0  0  0
   -3.4623   -0.5745   -0.0002 C   0  0  0  0  0  0  0  0  0  0  0  0
    3.8582   -0.3756   -0.0002 C   0  0  0  0  0  0  0  0  0  0  0  0
    3.7528    1.0155   -0.0001 C   0  0  0  0  0  0  0  0  0  0  0  0
   -5.8105    0.7738   -0.0008 C   0  0  0  0  0  0  0  0  0  0  0  0
   -2.1930    2.5816    0.0005 H   0  0  0  0  0  0  0  0  0  0  0  0
    2.7963   -2.2485   -0.0002 H   0  0  0  0  0  0  0  0  0  0  0  0
    2.4109    2.7065    0.0003 H   0  0  0  0  0  0  0  0  0  0  0  0
   -4.3816   -1.1514   -0.0005 H   0  0  0  0  0  0  0  0  0  0  0  0
   -1.4694   -3.0545   -0.0004 H   0  0  0  0  0  0  0  0  0  0  0  0
    4.9616   -1.9410   -0.0010 H   0  0  0  0  0  0  0  0  0  0  0  0
    4.6062    2.7296   -0.0004 H   0  0  0  0  0  0  0  0  0  0  0  0
   -5.9116    0.1723   -0.9106 H   0  0  0  0  0  0  0  0  0  0  0  0
   -6.6358    1.4934   -0.0010 H   0  0  0  0  0  0  0  0  0  0  0  0
   -5.9120    0.1723    0.9090 H   0  0  0  0  0  0  0  0  0  0  0  0
  1  9  1  0  0  0  0
  1 10  1  0  0  0  0
  2 16  1  0  0  0  0
  2 20  1  0  0  0  0
  3 12  1  0  0  0  0
  3 25  1  0  0  0  0
  4 11  2  0  0  0  0
  5 18  1  0  0  0  0
  5 26  1  0  0  0  0
  6 19  1  0  0  0  0
  6 27  1  0  0  0  0
  7  9  1  0  0  0  0
  7 11  1  0  0  0  0
  7 12  2  0  0  0  0
  8 10  1  0  0  0  0
  8 11  1  0  0  0  0
  8 14  2  0  0  0  0
  9 13  2  0  0  0  0
 10 15  2  0  0  0  0
 12 17  1  0  0  0  0
 13 16  1  0  0  0  0
 13 21  1  0  0  0  0
 14 18  1  0  0  0  0
 14 22  1  0  0  0  0
 15 19  1  0  0  0  0
 15 23  1  0  0  0  0
 16 17  2  0  0  0  0
 17 24  1  0  0  0  0
 18 19  2  0  0  0  0
 20 28  1  0  0  0  0
 20 29  1  0  0  0  0
 20 30  1  0  0  0  0
M  END
> <PUBCHEM_COMPOUND_CID>
5281622

> <PUBCHEM_CONFORMER_RMSD>
0.6

> <PUBCHEM_CONFORMER_DIVERSEORDER>
1

> <PUBCHEM_MMFF94_PARTIAL_CHARGES>
27
1 -0.17
10 0.08
11 0.4
12 0.08
13 -0.15
14 -0.15
15 -0.15
16 0.08
17 -0.15
18 0.08
19 0.08
2 -0.36
20 0.28
21 0.15
22 0.15
23 0.15
24 0.15
25 0.45
26 0.45
27 0.45
3 -0.53
4 -0.57
5 -0.53
6 -0.53
7 0.09
8 0.09
9 0.08

> <PUBCHEM_EFFECTIVE_ROTOR_COUNT>
1

> <PUBCHEM_PHARMACOPHORE_FEATURES>
9
1 1 acceptor
1 2 acceptor
1 3 donor
1 4 acceptor
1 5 donor
1 6 donor
6 1 7 8 9 10 11 rings
6 7 9 12 13 16 17 rings
6 8 10 14 15 18 19 rings

> <PUBCHEM_HEAVY_ATOM_COUNT>
20

> <PUBCHEM_ATOM_DEF_STEREO_COUNT>
0

> <PUBCHEM_ATOM_UDEF_STEREO_COUNT>
0

> <PUBCHEM_BOND_DEF_STEREO_COUNT>
0

> <PUBCHEM_BOND_UDEF_STEREO_COUNT>
0

> <PUBCHEM_ISOTOPIC_ATOM_COUNT>
0

> <PUBCHEM_COMPONENT_COUNT>
1

> <PUBCHEM_CACTVS_TAUTO_COUNT>
48

> <PUBCHEM_CONFORMER_ID>
0050975600000001

> <PUBCHEM_MMFF94_ENERGY>
69.1777

> <PUBCHEM_FEATURE_SELFOVERLAP>
45.733

> <PUBCHEM_SHAPE_FINGERPRINT>
10062212 137 18411409635469133355
10411042 1 17185596261429993762
10608611 8 18340203089464457088
10616163 171 18339645667002226446
10967382 1 18338516339579203398
11132069 177 18410007749680040736
11471102 20 18411698759777063668
11578080 2 17058351820428896339
12236239 1 17917710180562118533
12403814 3 17821725027333718093
12592029 89 18262518087309307155
12644460 14 18115590322962357227
13140716 1 18410289241704661050
13380535 76 18411982429904179151
138480 1 17546165203937263043
14790565 3 18339649936458642697
15099037 51 18411700954579088103
15196674 1 18410575114780681958
15442244 35 18409728465637810882
15536298 74 18413671322887916468
16945 1 18266740186179392231
17804303 29 18411703192267644172
18186145 218 18186513311305411870
200 152 17917988382578414949
20510252 161 18271248325729574376
20645477 70 18271526398981592158
21267235 1 18338806627855380586
23227448 37 18411135861779773805
2334 1 18338799042916573698
23402539 116 18272081703835015876
23402655 69 18342737442328424820
23463225 33 18407759240016948012
23558518 356 17755017836679540537
23559900 14 18343581859185729656
2748010 2 18410576231419405534
3004659 81 18334861589684723518
335352 9 18410856530076360734
34934 24 18410006654341963442
350125 39 18409167671658011740
3545911 37 18411139138560550692
4214541 1 18410855477308056961
474 4 17531813588087088836
495365 180 17418081153260548936
5104073 3 18409728495428113848
59755656 215 18339930294854353710
633830 44 17531247296479903234
69090 78 18411697673593215557
7364860 26 18197218048802146646
77779 3 18410294743905913508
9709674 26 18341055193801662094

> <PUBCHEM_SHAPE_MULTIPOLES>
376.37
9.92
2.26
0.59
1.57
0.83
0
-3.35
0
0.09
0
0.02
-0.01
0

> <PUBCHEM_SHAPE_SELFOVERLAP>
847.445

> <PUBCHEM_SHAPE_VOLUME>
198.2

> <PUBCHEM_COORDINATE_TYPE>
2
5
10

$$$$
