5315582
  -OEChem-03052615053D

 64 68  0     1  0  0  0  0  0999 V2000
   -3.3384    1.0852    2.6627 O   0  0  0  0  0  0  0  0  0  0  0  0
   -5.3712    1.9313   -0.6794 O   0  0  0  0  0  0  0  0  0  0  0  0
    6.1271    0.7299    0.3003 N   0  0  0  0  0  0  0  0  0  0  0  0
    0.3910    0.0716   -0.7233 C   0  0  1  0  0  0  0  0  0  0  0  0
    1.8761    0.2340   -0.3431 C   0  0  2  0  0  0  0  0  0  0  0  0
    1.4889   -0.0070   -1.7784 C   0  0  0  0  0  0  0  0  0  0  0  0
   -0.3501   -1.2538   -0.4218 C   0  0  2  0  0  0  0  0  0  0  0  0
   -1.8365   -1.0682    0.0799 C   0  0  2  0  0  0  0  0  0  0  0  0
    2.5980   -0.8807    0.4177 C   0  0  1  0  0  0  0  0  0  0  0  0
   -0.4992    1.2905   -0.8560 C   0  0  0  0  0  0  0  0  0  0  0  0
   -2.6813   -0.0357   -0.7904 C   0  0  2  0  0  0  0  0  0  0  0  0
    2.4304    1.6054    0.0099 C   0  0  0  0  0  0  0  0  0  0  0  0
    0.4543   -2.1722    0.5293 C   0  0  0  0  0  0  0  0  0  0  0  0
   -1.7697    0.9202   -1.6012 C   0  0  0  0  0  0  0  0  0  0  0  0
    1.9386   -2.2487    0.1994 C   0  0  0  0  0  0  0  0  0  0  0  0
   -1.9003   -0.4794    1.5109 C   0  0  0  0  0  0  0  0  0  0  0  0
   -3.4794    0.8176    0.2610 C   0  0  2  0  0  0  0  0  0  0  0  0
    4.1095   -0.8154    0.1731 C   0  0  0  0  0  0  0  0  0  0  0  0
   -3.2853    0.1350    1.6103 C   0  0  2  0  0  0  0  0  0  0  0  0
    3.9443    1.6596   -0.2287 C   0  0  0  0  0  0  0  0  0  0  0  0
   -2.5251   -2.4632    0.1357 C   0  0  0  0  0  0  0  0  0  0  0  0
    4.6936    0.5514    0.5339 C   0  0  2  0  0  0  0  0  0  0  0  0
   -3.5982   -0.7121   -1.8367 C   0  0  0  0  0  0  0  0  0  0  0  0
   -4.9425    0.9746   -0.0361 C   0  0  0  0  0  0  0  0  0  0  0  0
    4.8357   -1.8367   -0.3130 C   0  0  0  0  0  0  0  0  0  0  0  0
   -5.8585   -0.0973    0.4894 C   0  0  0  0  0  0  0  0  0  0  0  0
    6.5481    2.0642    0.6945 C   0  0  0  0  0  0  0  0  0  0  0  0
    1.5996    0.8112   -2.4834 H   0  0  0  0  0  0  0  0  0  0  0  0
    1.7062   -0.9616   -2.2418 H   0  0  0  0  0  0  0  0  0  0  0  0
   -0.4187   -1.7779   -1.3869 H   0  0  0  0  0  0  0  0  0  0  0  0
    2.4637   -0.6585    1.4880 H   0  0  0  0  0  0  0  0  0  0  0  0
   -0.0046    2.0820   -1.4309 H   0  0  0  0  0  0  0  0  0  0  0  0
   -0.7120    1.7239    0.1253 H   0  0  0  0  0  0  0  0  0  0  0  0
    2.2093    1.8198    1.0628 H   0  0  0  0  0  0  0  0  0  0  0  0
    1.9656    2.4017   -0.5798 H   0  0  0  0  0  0  0  0  0  0  0  0
    0.0544   -3.1911    0.4852 H   0  0  0  0  0  0  0  0  0  0  0  0
    0.3535   -1.8378    1.5678 H   0  0  0  0  0  0  0  0  0  0  0  0
   -2.3214    1.8312   -1.8668 H   0  0  0  0  0  0  0  0  0  0  0  0
   -1.4843    0.4534   -2.5542 H   0  0  0  0  0  0  0  0  0  0  0  0
    2.4046   -2.9911    0.8600 H   0  0  0  0  0  0  0  0  0  0  0  0
    2.0687   -2.6135   -0.8257 H   0  0  0  0  0  0  0  0  0  0  0  0
   -1.1307    0.2785    1.6912 H   0  0  0  0  0  0  0  0  0  0  0  0
   -1.7601   -1.2334    2.2945 H   0  0  0  0  0  0  0  0  0  0  0  0
   -3.0757    1.8372    0.3306 H   0  0  0  0  0  0  0  0  0  0  0  0
   -3.9890   -0.6610    1.8579 H   0  0  0  0  0  0  0  0  0  0  0  0
    4.1418    1.5773   -1.3064 H   0  0  0  0  0  0  0  0  0  0  0  0
    4.2477    2.6643    0.0821 H   0  0  0  0  0  0  0  0  0  0  0  0
   -2.4449   -2.9847   -0.8241 H   0  0  0  0  0  0  0  0  0  0  0  0
   -2.0728   -3.1090    0.8958 H   0  0  0  0  0  0  0  0  0  0  0  0
   -3.5841   -2.3990    0.3980 H   0  0  0  0  0  0  0  0  0  0  0  0
    4.5150    0.6804    1.6111 H   0  0  0  0  0  0  0  0  0  0  0  0
   -3.0012   -1.3126   -2.5341 H   0  0  0  0  0  0  0  0  0  0  0  0
   -4.3464   -1.3817   -1.4127 H   0  0  0  0  0  0  0  0  0  0  0  0
   -4.1290    0.0332   -2.4408 H   0  0  0  0  0  0  0  0  0  0  0  0
    5.9048   -1.7558   -0.4758 H   0  0  0  0  0  0  0  0  0  0  0  0
    4.3943   -2.7932   -0.5668 H   0  0  0  0  0  0  0  0  0  0  0  0
    6.3416    0.5972   -0.6880 H   0  0  0  0  0  0  0  0  0  0  0  0
   -4.2285    1.4765    2.6602 H   0  0  0  0  0  0  0  0  0  0  0  0
   -5.4695   -1.1040    0.3499 H   0  0  0  0  0  0  0  0  0  0  0  0
   -6.0809    0.0868    1.5438 H   0  0  0  0  0  0  0  0  0  0  0  0
   -6.8025   -0.0442   -0.0638 H   0  0  0  0  0  0  0  0  0  0  0  0
    6.3218    2.8227   -0.0614 H   0  0  0  0  0  0  0  0  0  0  0  0
    7.6388    2.0615    0.7993 H   0  0  0  0  0  0  0  0  0  0  0  0
    6.1433    2.3678    1.6661 H   0  0  0  0  0  0  0  0  0  0  0  0
  1 19  1  0  0  0  0
  1 58  1  0  0  0  0
  2 24  2  0  0  0  0
  3 22  1  0  0  0  0
  3 27  1  0  0  0  0
  3 57  1  0  0  0  0
  4  5  1  0  0  0  0
  4  6  1  0  0  0  0
  4  7  1  0  0  0  0
  4 10  1  0  0  0  0
  5  6  1  0  0  0  0
  5  9  1  0  0  0  0
  5 12  1  0  0  0  0
  6 28  1  0  0  0  0
  6 29  1  0  0  0  0
  7  8  1  0  0  0  0
  7 13  1  0  0  0  0
  7 30  1  0  0  0  0
  8 11  1  0  0  0  0
  8 16  1  0  0  0  0
  8 21  1  0  0  0  0
  9 15  1  0  0  0  0
  9 18  1  0  0  0  0
  9 31  1  0  0  0  0
 10 14  1  0  0  0  0
 10 32  1  0  0  0  0
 10 33  1  0  0  0  0
 11 14  1  0  0  0  0
 11 17  1  0  0  0  0
 11 23  1  0  0  0  0
 12 20  1  0  0  0  0
 12 34  1  0  0  0  0
 12 35  1  0  0  0  0
 13 15  1  0  0  0  0
 13 36  1  0  0  0  0
 13 37  1  0  0  0  0
 14 38  1  0  0  0  0
 14 39  1  0  0  0  0
 15 40  1  0  0  0  0
 15 41  1  0  0  0  0
 16 19  1  0  0  0  0
 16 42  1  0  0  0  0
 16 43  1  0  0  0  0
 17 19  1  0  0  0  0
 17 24  1  0  0  0  0
 17 44  1  0  0  0  0
 18 22  1  0  0  0  0
 18 25  2  0  0  0  0
 19 45  1  0  0  0  0
 20 22  1  0  0  0  0
 20 46  1  0  0  0  0
 20 47  1  0  0  0  0
 21 48  1  0  0  0  0
 21 49  1  0  0  0  0
 21 50  1  0  0  0  0
 22 51  1  0  0  0  0
 23 52  1  0  0  0  0
 23 53  1  0  0  0  0
 23 54  1  0  0  0  0
 24 26  1  0  0  0  0
 25 55  1  0  0  0  0
 25 56  1  0  0  0  0
 26 59  1  0  0  0  0
 26 60  1  0  0  0  0
 26 61  1  0  0  0  0
 27 62  1  0  0  0  0
 27 63  1  0  0  0  0
 27 64  1  0  0  0  0
M  END
> <PUBCHEM_COMPOUND_CID>
5315582

> <PUBCHEM_CONFORMER_RMSD>
0.8

> <PUBCHEM_CONFORMER_DIVERSEORDER>
8
21
24
10
17
1
2
23
14
16
9
22
18
4
15
26
3
27
5
12
13
11
25
19
6
7
20

> <PUBCHEM_MMFF94_PARTIAL_CHARGES>
24
1 -0.68
10 0.09
12 0.09
17 0.06
18 -0.28
19 0.28
2 -0.57
22 0.41
24 0.45
25 -0.3
26 0.06
27 0.27
28 0.1
29 0.1
3 -0.9
4 -0.19
5 -0.19
55 0.15
56 0.15
57 0.36
58 0.4
6 -0.2
7 0.09
9 0.23

> <PUBCHEM_EFFECTIVE_ROTOR_COUNT>
4.2

> <PUBCHEM_PHARMACOPHORE_FEATURES>
9
1 1 acceptor
1 1 donor
1 2 acceptor
1 3 cation
1 3 donor
5 8 11 16 17 19 rings
6 4 7 8 10 11 14 rings
6 5 9 12 18 20 22 rings
7 4 5 6 7 9 13 15 rings

> <PUBCHEM_HEAVY_ATOM_COUNT>
27

> <PUBCHEM_ATOM_DEF_STEREO_COUNT>
6

> <PUBCHEM_ATOM_UDEF_STEREO_COUNT>
3

> <PUBCHEM_BOND_DEF_STEREO_COUNT>
0

> <PUBCHEM_BOND_UDEF_STEREO_COUNT>
0

> <PUBCHEM_ISOTOPIC_ATOM_COUNT>
0

> <PUBCHEM_COMPONENT_COUNT>
1

> <PUBCHEM_CACTVS_TAUTO_COUNT>
3

> <PUBCHEM_CONFORMER_ID>
00511BFE00000008

> <PUBCHEM_MMFF94_ENERGY>
102.804

> <PUBCHEM_FEATURE_SELFOVERLAP>
45.922

> <PUBCHEM_SHAPE_FINGERPRINT>
10 15 17967531302984832600
11370993 144 18335422331370872332
11552529 35 18057883743695648118
11640471 11 18059863826824348027
12035758 1 17168440281249116273
12236239 1 17988641874455651679
12403259 415 18114173082660179340
12596602 18 18201722842862546115
12633257 1 18335693949608681018
12788726 201 17560805377233083985
128620 24 11167938035163013739
13140716 1 18041565865561887532
13224815 77 17676489470941771110
13533116 47 17917991633631618958
13583140 156 18201438141943376874
13631057 29 18057593477226799151
13675066 3 17822017509747040627
14341114 176 18410013217532208620
14341114 328 18059855056353358648
14386348 63 17458633276401601243
15064981 113 16558188177385074972
15183329 4 13758086212269799404
15196674 1 18408601478909297430
15238133 3 17531540775832457341
15840311 113 18124604085734799533
16945 1 18261104123961869191
17349148 13 17846499218734865581
1813 80 16370727019826963438
200 152 18131060563149983831
20511986 3 18130209502315784259
20775530 9 12904119809656406129
21033648 144 18409157818549244198
21033648 29 17895465951724297853
21033650 10 15338576971736840218
22182313 1 17677891232060644767
22393880 68 11887680528596107650
23559900 14 18410008832813789086
2838139 119 17132120147486394968
296302 2 18273213101389875910
335352 9 18335981974474243958
350125 39 18265336298814902474
3633792 109 18269833121774845933
4093350 32 17632580423111301726
474 4 18343585157187564256
5104073 3 18261666056614553866
633830 44 17989214716030193734
7495541 125 13334741245367470438

> <PUBCHEM_SHAPE_MULTIPOLES>
538.93
12.79
2.21
1.5
7.02
0.63
-0.24
-5.64
-2.56
1.16
-0.1
-1.56
-0.28
0.34

> <PUBCHEM_SHAPE_SELFOVERLAP>
1155.938

> <PUBCHEM_SHAPE_VOLUME>
297.7

> <PUBCHEM_COORDINATE_TYPE>
2
5
10

$$$$
