5316492
  -OEChem-03052615043D

 75 79  0     1  0  0  0  0  0999 V2000
   -1.3478   -2.7953   -0.2405 O   0  0  0  0  0  0  0  0  0  0  0  0
    4.8690   -0.5758    0.3792 O   0  0  0  0  0  0  0  0  0  0  0  0
   -2.4921   -0.8098    0.3668 O   0  0  0  0  0  0  0  0  0  0  0  0
    4.3269    1.5967    1.0351 O   0  0  0  0  0  0  0  0  0  0  0  0
   -5.2294   -4.0443   -0.8911 O   0  0  0  0  0  0  0  0  0  0  0  0
   -3.7753   -5.0529    1.3717 O   0  0  0  0  0  0  0  0  0  0  0  0
    8.6291    0.5801   -0.8011 O   0  0  0  0  0  0  0  0  0  0  0  0
    7.5479   -1.9413   -1.7118 O   0  0  0  0  0  0  0  0  0  0  0  0
   -4.4495   -1.3419   -1.5723 O   0  0  0  0  0  0  0  0  0  0  0  0
    6.4834    2.5784   -0.5121 O   0  0  0  0  0  0  0  0  0  0  0  0
    0.3387   -3.9051    1.5972 O   0  0  0  0  0  0  0  0  0  0  0  0
    3.7885   -3.0537   -0.1194 O   0  0  0  0  0  0  0  0  0  0  0  0
   -1.0890    2.6127    0.2982 O   0  3  0  0  0  0  0  0  0  0  0  0
    3.3960    4.2065    0.8025 O   0  0  0  0  0  0  0  0  0  0  0  0
   -5.6709    2.3179   -2.8028 O   0  0  0  0  0  0  0  0  0  0  0  0
   -6.3639    2.6205    1.9267 O   0  0  0  0  0  0  0  0  0  0  0  0
   -7.3636    2.7501   -0.6530 O   0  0  0  0  0  0  0  0  0  0  0  0
   -4.1867   -3.3239   -0.2301 C   0  0  1  0  0  0  0  0  0  0  0  0
   -3.1676   -4.3340    0.3010 C   0  0  1  0  0  0  0  0  0  0  0  0
    7.2332    0.3321   -0.9756 C   0  0  1  0  0  0  0  0  0  0  0  0
    6.9746   -1.1450   -0.6783 C   0  0  1  0  0  0  0  0  0  0  0  0
   -3.5291   -2.3707   -1.2262 C   0  0  2  0  0  0  0  0  0  0  0  0
   -1.8919   -3.6324    0.7863 C   0  0  1  0  0  0  0  0  0  0  0  0
    6.4343    1.2341   -0.0348 C   0  0  2  0  0  0  0  0  0  0  0  0
    5.4726   -1.4277   -0.5961 C   0  0  1  0  0  0  0  0  0  0  0  0
   -2.2427   -1.7645   -0.6632 C   0  0  2  0  0  0  0  0  0  0  0  0
    4.9690    0.8045    0.0366 C   0  0  1  0  0  0  0  0  0  0  0  0
   -0.8020   -4.6284    1.1733 C   0  0  0  0  0  0  0  0  0  0  0  0
    5.1909   -2.8694   -0.1850 C   0  0  0  0  0  0  0  0  0  0  0  0
   -1.5324    0.1760    0.3673 C   0  0  0  0  0  0  0  0  0  0  0  0
    2.9973    1.8450    0.8560 C   0  0  0  0  0  0  0  0  0  0  0  0
    0.7387    1.0137    0.6079 C   0  0  0  0  0  0  0  0  0  0  0  0
   -0.2296   -0.0753    0.5503 C   0  0  0  0  0  0  0  0  0  0  0  0
    2.1038    0.7743    0.7910 C   0  0  0  0  0  0  0  0  0  0  0  0
   -1.9230    1.6138    0.2167 C   0  0  0  0  0  0  0  0  0  0  0  0
    0.2759    2.3285    0.4921 C   0  0  0  0  0  0  0  0  0  0  0  0
    2.5313    3.1546    0.7403 C   0  0  0  0  0  0  0  0  0  0  0  0
    1.1708    3.3969    0.5584 C   0  0  0  0  0  0  0  0  0  0  0  0
   -3.3562    1.9117   -0.0121 C   0  0  0  0  0  0  0  0  0  0  0  0
   -4.1966    2.1278    1.0741 C   0  0  0  0  0  0  0  0  0  0  0  0
   -3.8469    1.9742   -1.3115 C   0  0  0  0  0  0  0  0  0  0  0  0
   -5.1957    2.2567   -1.5273 C   0  0  0  0  0  0  0  0  0  0  0  0
   -5.5454    2.4101    0.8582 C   0  0  0  0  0  0  0  0  0  0  0  0
   -6.0450    2.4746   -0.4425 C   0  0  0  0  0  0  0  0  0  0  0  0
   -4.6590   -2.7641    0.5865 H   0  0  0  0  0  0  0  0  0  0  0  0
   -2.9205   -5.0566   -0.4874 H   0  0  0  0  0  0  0  0  0  0  0  0
    7.0055    0.5647   -2.0232 H   0  0  0  0  0  0  0  0  0  0  0  0
    7.4726   -1.4096    0.2637 H   0  0  0  0  0  0  0  0  0  0  0  0
   -3.3028   -2.9321   -2.1420 H   0  0  0  0  0  0  0  0  0  0  0  0
   -2.1051   -3.0117    1.6668 H   0  0  0  0  0  0  0  0  0  0  0  0
    6.8861    1.2358    0.9643 H   0  0  0  0  0  0  0  0  0  0  0  0
    4.9864   -1.2502   -1.5651 H   0  0  0  0  0  0  0  0  0  0  0  0
   -1.7618   -1.2572   -1.5128 H   0  0  0  0  0  0  0  0  0  0  0  0
    4.4831    0.9794   -0.9349 H   0  0  0  0  0  0  0  0  0  0  0  0
   -1.1242   -5.2788    1.9916 H   0  0  0  0  0  0  0  0  0  0  0  0
   -0.5071   -5.2519    0.3226 H   0  0  0  0  0  0  0  0  0  0  0  0
    5.6049   -3.0936    0.8037 H   0  0  0  0  0  0  0  0  0  0  0  0
    5.5906   -3.5869   -0.9064 H   0  0  0  0  0  0  0  0  0  0  0  0
   -5.7188   -4.5419   -0.2147 H   0  0  0  0  0  0  0  0  0  0  0  0
   -4.4852   -5.6000    0.9959 H   0  0  0  0  0  0  0  0  0  0  0  0
    9.1082   -0.0179   -1.4001 H   0  0  0  0  0  0  0  0  0  0  0  0
    7.5917   -2.8579   -1.3918 H   0  0  0  0  0  0  0  0  0  0  0  0
   -4.0198   -0.7803   -2.2397 H   0  0  0  0  0  0  0  0  0  0  0  0
    6.0854    2.5984   -1.3991 H   0  0  0  0  0  0  0  0  0  0  0  0
    0.1479   -1.0777    0.7074 H   0  0  0  0  0  0  0  0  0  0  0  0
    2.4546   -0.2471    0.9044 H   0  0  0  0  0  0  0  0  0  0  0  0
    0.6449   -3.3726    0.8433 H   0  0  0  0  0  0  0  0  0  0  0  0
    3.4400   -2.4276    0.5378 H   0  0  0  0  0  0  0  0  0  0  0  0
    0.7937    4.4117    0.4649 H   0  0  0  0  0  0  0  0  0  0  0  0
   -3.8021    2.0771    2.0860 H   0  0  0  0  0  0  0  0  0  0  0  0
   -3.1867    1.8048   -2.1585 H   0  0  0  0  0  0  0  0  0  0  0  0
    2.8952    5.0343    0.7028 H   0  0  0  0  0  0  0  0  0  0  0  0
   -6.6214    2.5228   -2.7655 H   0  0  0  0  0  0  0  0  0  0  0  0
   -5.8452    2.5358    2.7451 H   0  0  0  0  0  0  0  0  0  0  0  0
   -7.7939    2.8707    0.2114 H   0  0  0  0  0  0  0  0  0  0  0  0
  1 23  1  0  0  0  0
  1 26  1  0  0  0  0
  2 25  1  0  0  0  0
  2 27  1  0  0  0  0
  3 26  1  0  0  0  0
  3 30  1  0  0  0  0
  4 27  1  0  0  0  0
  4 31  1  0  0  0  0
  5 18  1  0  0  0  0
  5 59  1  0  0  0  0
  6 19  1  0  0  0  0
  6 60  1  0  0  0  0
  7 20  1  0  0  0  0
  7 61  1  0  0  0  0
  8 21  1  0  0  0  0
  8 62  1  0  0  0  0
  9 22  1  0  0  0  0
  9 63  1  0  0  0  0
 10 24  1  0  0  0  0
 10 64  1  0  0  0  0
 11 28  1  0  0  0  0
 11 67  1  0  0  0  0
 12 29  1  0  0  0  0
 12 68  1  0  0  0  0
 13 35  2  0  0  0  0
 13 36  1  0  0  0  0
 14 37  1  0  0  0  0
 14 72  1  0  0  0  0
 15 42  1  0  0  0  0
 15 73  1  0  0  0  0
 16 43  1  0  0  0  0
 16 74  1  0  0  0  0
 17 44  1  0  0  0  0
 17 75  1  0  0  0  0
 18 19  1  0  0  0  0
 18 22  1  0  0  0  0
 18 45  1  0  0  0  0
 19 23  1  0  0  0  0
 19 46  1  0  0  0  0
 20 21  1  0  0  0  0
 20 24  1  0  0  0  0
 20 47  1  0  0  0  0
 21 25  1  0  0  0  0
 21 48  1  0  0  0  0
 22 26  1  0  0  0  0
 22 49  1  0  0  0  0
 23 28  1  0  0  0  0
 23 50  1  0  0  0  0
 24 27  1  0  0  0  0
 24 51  1  0  0  0  0
 25 29  1  0  0  0  0
 25 52  1  0  0  0  0
 26 53  1  0  0  0  0
 27 54  1  0  0  0  0
 28 55  1  0  0  0  0
 28 56  1  0  0  0  0
 29 57  1  0  0  0  0
 29 58  1  0  0  0  0
 30 33  2  0  0  0  0
 30 35  1  0  0  0  0
 31 34  1  0  0  0  0
 31 37  2  0  0  0  0
 32 33  1  0  0  0  0
 32 34  2  0  0  0  0
 32 36  1  0  0  0  0
 33 65  1  0  0  0  0
 34 66  1  0  0  0  0
 35 39  1  0  0  0  0
 36 38  2  0  0  0  0
 37 38  1  0  0  0  0
 38 69  1  0  0  0  0
 39 40  2  0  0  0  0
 39 41  1  0  0  0  0
 40 43  1  0  0  0  0
 40 70  1  0  0  0  0
 41 42  2  0  0  0  0
 41 71  1  0  0  0  0
 42 44  1  0  0  0  0
 43 44  2  0  0  0  0
M  CHG  1  13   1
M  END
> <PUBCHEM_COMPOUND_CID>
5316492

> <PUBCHEM_CONFORMER_RMSD>
1.2

> <PUBCHEM_CONFORMER_DIVERSEORDER>
1
174
178
127
176
143
59
58
124
161
163
51
16
155
181
129
56
153
118
134
85
132
115
171
36
148
37
173
27
75
108
48
107
164
70
128
123
99
180
169
113
112
175
42
91
122
23
24
125
172
46
87
145
77
170
137
179
103
67
83
20
47
139
138
157
133
168
131
21
45
86
29
92
25
154
22
149
61
68
89
63
84
151
69
35
105
156
93
4
53
120
159
140
62
183
177
82
121
50
76
44
38
43
18
109
11
111
165
90
52
60
26
136
13
147
79
114
130
106
17
32
74
31
34
9
30
12
19
126
160
10
94
98
104
117
142
33
7
144
167
5
55
135
110
41
57
80
95
2
3
97
100
152
78
14
71
49
182
116
119
40
6
39
54
146
166
81
66
88
65
28
102
162
141
96
72
64
101
8
73
158
15
150

> <PUBCHEM_MMFF94_PARTIAL_CHARGES>
61
1 -0.56
10 -0.68
11 -0.68
12 -0.68
13 -0.87
14 -0.53
15 -0.53
16 -0.53
17 -0.53
18 0.28
19 0.28
2 -0.56
20 0.28
21 0.28
22 0.28
23 0.28
24 0.28
25 0.28
26 0.56
27 0.56
28 0.28
29 0.28
3 -0.36
30 0.09
31 0.08
32 0.03
33 -0.18
34 -0.15
35 0.85
36 0.92
37 0.08
38 -0.15
39 0.09
4 -0.36
40 -0.15
41 -0.15
42 0.08
43 0.08
44 0.08
5 -0.68
59 0.4
6 -0.68
60 0.4
61 0.4
62 0.4
63 0.4
64 0.4
65 0.15
66 0.15
67 0.4
68 0.4
69 0.15
7 -0.68
70 0.15
71 0.15
72 0.45
73 0.45
74 0.45
75 0.45
8 -0.68
9 -0.68

> <PUBCHEM_EFFECTIVE_ROTOR_COUNT>
9.4

> <PUBCHEM_PHARMACOPHORE_FEATURES>
29
1 1 acceptor
1 10 acceptor
1 10 donor
1 11 acceptor
1 11 donor
1 12 acceptor
1 12 donor
1 14 donor
1 15 donor
1 16 donor
1 17 donor
1 2 acceptor
1 3 acceptor
1 4 acceptor
1 5 acceptor
1 5 donor
1 6 acceptor
1 6 donor
1 7 acceptor
1 7 donor
1 8 acceptor
1 8 donor
1 9 acceptor
1 9 donor
6 1 18 19 22 23 26 rings
6 13 30 32 33 35 36 rings
6 2 20 21 24 25 27 rings
6 31 32 34 36 37 38 rings
6 39 40 41 42 43 44 rings

> <PUBCHEM_HEAVY_ATOM_COUNT>
44

> <PUBCHEM_ATOM_DEF_STEREO_COUNT>
10

> <PUBCHEM_ATOM_UDEF_STEREO_COUNT>
0

> <PUBCHEM_BOND_DEF_STEREO_COUNT>
0

> <PUBCHEM_BOND_UDEF_STEREO_COUNT>
0

> <PUBCHEM_ISOTOPIC_ATOM_COUNT>
0

> <PUBCHEM_COMPONENT_COUNT>
1

> <PUBCHEM_CACTVS_TAUTO_COUNT>
71

> <PUBCHEM_CONFORMER_ID>
00511F8C00000001

> <PUBCHEM_MMFF94_ENERGY>
145.3184

> <PUBCHEM_FEATURE_SELFOVERLAP>
147.367

> <PUBCHEM_SHAPE_FINGERPRINT>
10050765 1 18267864072122035704
10119406 146 18130232557858647661
10190108 129 18260556667015827051
1100329 8 18339918195862753051
11007060 377 18271804584461967953
11062273 19 17329418455626460567
117089 54 18269843176003525342
11991303 11 18186804669123358743
12522641 33 18335696085067718141
12643181 29 18412542090244902656
12788726 201 17978207677091707011
13008946 113 17686626740913147277
13540713 4 18127963324841961976
13911987 19 18263066740124293125
140371 6 17685772828220351873
14068700 686 17835234924183715320
14790565 3 17980485563872570929
14866123 147 18411984697984528499
15183329 4 18342453691061771264
15230672 131 18335136441347558386
15320467 1 17907583528347529922
15351339 4 18335404777697843411
15361156 5 18260839223712690712
15392192 29 18058744515587605316
15927050 60 18339637850752708283
16067689 134 18339926987571085009
16067689 391 17987220301006707719
16112460 7 18271527485967131209
16628084 112 18050284765458748308
17627616 140 18191577554399601635
19301676 85 18198348342856464742
19301679 30 18050012391645033891
19311894 1 18412823616645403993
19319366 153 17750796537021915570
19958102 18 18337094753192460061
21307412 95 18271533000921306644
22311459 1 18340769243701501424
23559900 14 18272363192235452240
23576562 1 18114460162744207357
244849 19 17416385761616746985
354706 132 18040724675692260974
4073 2 18342453794499656880
4144715 1 18338515377633630256
4435113 14 18201167606897398054
513202 73 18189628318263312859
563151 40 18260551121405750899
59755656 520 18413108334354214369
6009941 240 18412544319380337420
6698420 124 18201443550067514561

> <PUBCHEM_SHAPE_MULTIPOLES>
805.72
19.82
6.89
1.44
24.5
7.25
0.41
-5.96
7.82
-7.47
-1.79
-1.56
-0.13
1.68

> <PUBCHEM_SHAPE_SELFOVERLAP>
1749.891

> <PUBCHEM_SHAPE_VOLUME>
431.9

> <PUBCHEM_COORDINATE_TYPE>
2
5
10

$$$$
