5316493
  -OEChem-03052615003D

 83 87  0     1  0  0  0  0  0999 V2000
    3.6523   -0.4286   -0.2029 O   0  0  0  0  0  0  0  0  0  0  0  0
   -2.8733   -1.6158   -0.3819 O   0  0  0  0  0  0  0  0  0  0  0  0
    3.2853   -0.0951    2.0781 O   0  0  0  0  0  0  0  0  0  0  0  0
   -1.6385   -1.3030    1.5742 O   0  0  0  0  0  0  0  0  0  0  0  0
    4.2501   -3.0762   -1.0926 O   0  0  0  0  0  0  0  0  0  0  0  0
    6.4339   -3.3859    0.5999 O   0  0  0  0  0  0  0  0  0  0  0  0
    5.7010   -1.4774    2.6459 O   0  0  0  0  0  0  0  0  0  0  0  0
   -2.0966   -5.6801   -0.3122 O   0  0  0  0  0  0  0  0  0  0  0  0
   -4.3250   -4.0581   -0.6759 O   0  0  0  0  0  0  0  0  0  0  0  0
   -0.4422   -3.8518    1.1997 O   0  0  0  0  0  0  0  0  0  0  0  0
    3.6145    0.7276   -2.9211 O   0  0  0  0  0  0  0  0  0  0  0  0
   -3.8724   -0.4459   -2.9038 O   0  0  0  0  0  0  0  0  0  0  0  0
   -0.8825    2.2591    1.1219 O   0  3  0  0  0  0  0  0  0  0  0  0
    3.2347    4.6582    1.4197 O   0  0  0  0  0  0  0  0  0  0  0  0
    1.6278    0.7622   -1.7520 O   0  0  0  0  0  0  0  0  0  0  0  0
   -5.3867    2.2491   -1.6726 O   0  0  0  0  0  0  0  0  0  0  0  0
   -6.2034    0.5698    2.7377 O   0  0  0  0  0  0  0  0  0  0  0  0
   -7.1659    1.5259    0.3231 O   0  0  0  0  0  0  0  0  0  0  0  0
    1.2861    4.8068   -2.9789 O   0  0  0  0  0  0  0  0  0  0  0  0
    0.2800    3.1438   -1.7988 O   0  0  0  0  0  0  0  0  0  0  0  0
    5.2487   -2.0552   -1.0412 C   0  0  2  0  0  0  0  0  0  0  0  0
    5.9370   -2.0793    0.3238 C   0  0  1  0  0  0  0  0  0  0  0  0
    4.5814   -0.6931   -1.2614 C   0  0  1  0  0  0  0  0  0  0  0  0
    4.9713   -1.6640    1.4332 C   0  0  2  0  0  0  0  0  0  0  0  0
   -1.9202   -4.3068   -0.6491 C   0  0  1  0  0  0  0  0  0  0  0  0
   -3.1355   -3.7942   -1.4225 C   0  0  2  0  0  0  0  0  0  0  0  0
   -1.7028   -3.4994    0.6303 C   0  0  2  0  0  0  0  0  0  0  0  0
   -3.0096   -2.2827   -1.6430 C   0  0  1  0  0  0  0  0  0  0  0  0
    4.2730   -0.3489    1.0796 C   0  0  1  0  0  0  0  0  0  0  0  0
   -1.6973   -1.9988    0.3294 C   0  0  1  0  0  0  0  0  0  0  0  0
    3.8070   -0.6318   -2.5728 C   0  0  0  0  0  0  0  0  0  0  0  0
   -4.2312   -1.6944   -2.3394 C   0  0  0  0  0  0  0  0  0  0  0  0
    2.6223    1.0843    1.8180 C   0  0  0  0  0  0  0  0  0  0  0  0
   -0.9818   -0.0955    1.4498 C   0  0  0  0  0  0  0  0  0  0  0  0
    1.1916    0.9900    1.6176 C   0  0  0  0  0  0  0  0  0  0  0  0
    0.4470   -0.1224    1.6660 C   0  0  0  0  0  0  0  0  0  0  0  0
   -1.6240    1.0536    1.1695 C   0  0  0  0  0  0  0  0  0  0  0  0
    0.4007    2.2247    1.3246 C   0  0  0  0  0  0  0  0  0  0  0  0
    3.2469    2.2707    1.7478 C   0  0  0  0  0  0  0  0  0  0  0  0
    1.1850    3.4919    1.2704 C   0  0  0  0  0  0  0  0  0  0  0  0
    2.5095    3.4854    1.4711 C   0  0  0  0  0  0  0  0  0  0  0  0
   -3.0747    1.1774    0.9481 C   0  0  0  0  0  0  0  0  0  0  0  0
    2.4704    1.3181   -2.4421 C   0  0  0  0  0  0  0  0  0  0  0  0
    2.4169    2.7519   -2.9101 C   0  0  0  0  0  0  0  0  0  0  0  0
   -3.9677    0.8127    1.9555 C   0  0  0  0  0  0  0  0  0  0  0  0
   -3.5558    1.6596   -0.2693 C   0  0  0  0  0  0  0  0  0  0  0  0
   -4.9298    1.7769   -0.4791 C   0  0  0  0  0  0  0  0  0  0  0  0
   -5.3417    0.9300    1.7457 C   0  0  0  0  0  0  0  0  0  0  0  0
   -5.8228    1.4120    0.5284 C   0  0  0  0  0  0  0  0  0  0  0  0
    1.2071    3.5427   -2.4866 C   0  0  0  0  0  0  0  0  0  0  0  0
    5.9788   -2.2756   -1.8283 H   0  0  0  0  0  0  0  0  0  0  0  0
    6.8022   -1.4045    0.3171 H   0  0  0  0  0  0  0  0  0  0  0  0
    5.3408    0.1003   -1.2535 H   0  0  0  0  0  0  0  0  0  0  0  0
    4.2384   -2.4566    1.6244 H   0  0  0  0  0  0  0  0  0  0  0  0
   -1.0240   -4.2461   -1.2793 H   0  0  0  0  0  0  0  0  0  0  0  0
   -3.2234   -4.3318   -2.3735 H   0  0  0  0  0  0  0  0  0  0  0  0
   -2.4666   -3.7457    1.3771 H   0  0  0  0  0  0  0  0  0  0  0  0
   -2.1147   -2.0654   -2.2414 H   0  0  0  0  0  0  0  0  0  0  0  0
    5.0215    0.4551    1.0794 H   0  0  0  0  0  0  0  0  0  0  0  0
   -0.8148   -1.7585   -0.2831 H   0  0  0  0  0  0  0  0  0  0  0  0
    2.8530   -1.1704   -2.5249 H   0  0  0  0  0  0  0  0  0  0  0  0
    4.3956   -1.0767   -3.3821 H   0  0  0  0  0  0  0  0  0  0  0  0
   -5.0565   -1.5274   -1.6395 H   0  0  0  0  0  0  0  0  0  0  0  0
   -4.5673   -2.3400   -3.1567 H   0  0  0  0  0  0  0  0  0  0  0  0
    3.9662   -3.1679   -2.0176 H   0  0  0  0  0  0  0  0  0  0  0  0
    7.0362   -3.6285   -0.1240 H   0  0  0  0  0  0  0  0  0  0  0  0
    6.3603   -0.7781    2.4976 H   0  0  0  0  0  0  0  0  0  0  0  0
   -2.2421   -6.1680   -1.1407 H   0  0  0  0  0  0  0  0  0  0  0  0
   -5.0851   -3.8891   -1.2578 H   0  0  0  0  0  0  0  0  0  0  0  0
    0.2524   -3.6332    0.5553 H   0  0  0  0  0  0  0  0  0  0  0  0
    0.8953   -1.0899    1.8733 H   0  0  0  0  0  0  0  0  0  0  0  0
    4.3139    2.3669    1.9187 H   0  0  0  0  0  0  0  0  0  0  0  0
   -4.6672   -0.0850   -3.3322 H   0  0  0  0  0  0  0  0  0  0  0  0
    0.6313    4.4001    1.0619 H   0  0  0  0  0  0  0  0  0  0  0  0
    3.3018    3.2614   -2.5131 H   0  0  0  0  0  0  0  0  0  0  0  0
    2.4410    2.7439   -4.0053 H   0  0  0  0  0  0  0  0  0  0  0  0
   -3.5979    0.4417    2.9091 H   0  0  0  0  0  0  0  0  0  0  0  0
   -2.8592    1.9432   -1.0555 H   0  0  0  0  0  0  0  0  0  0  0  0
    2.6235    5.3899    1.2258 H   0  0  0  0  0  0  0  0  0  0  0  0
   -4.6274    2.4437   -2.2483 H   0  0  0  0  0  0  0  0  0  0  0  0
   -5.6926    0.2594    3.5049 H   0  0  0  0  0  0  0  0  0  0  0  0
   -7.3109    1.8743   -0.5738 H   0  0  0  0  0  0  0  0  0  0  0  0
    0.5129    5.3500   -2.7156 H   0  0  0  0  0  0  0  0  0  0  0  0
  1 23  1  0  0  0  0
  1 29  1  0  0  0  0
  2 28  1  0  0  0  0
  2 30  1  0  0  0  0
  3 29  1  0  0  0  0
  3 33  1  0  0  0  0
  4 30  1  0  0  0  0
  4 34  1  0  0  0  0
  5 21  1  0  0  0  0
  5 65  1  0  0  0  0
  6 22  1  0  0  0  0
  6 66  1  0  0  0  0
  7 24  1  0  0  0  0
  7 67  1  0  0  0  0
  8 25  1  0  0  0  0
  8 68  1  0  0  0  0
  9 26  1  0  0  0  0
  9 69  1  0  0  0  0
 10 27  1  0  0  0  0
 10 70  1  0  0  0  0
 11 31  1  0  0  0  0
 11 43  1  0  0  0  0
 12 32  1  0  0  0  0
 12 73  1  0  0  0  0
 13 37  1  0  0  0  0
 13 38  2  0  0  0  0
 14 41  1  0  0  0  0
 14 79  1  0  0  0  0
 15 43  2  0  0  0  0
 16 47  1  0  0  0  0
 16 80  1  0  0  0  0
 17 48  1  0  0  0  0
 17 81  1  0  0  0  0
 18 49  1  0  0  0  0
 18 82  1  0  0  0  0
 19 50  1  0  0  0  0
 19 83  1  0  0  0  0
 20 50  2  0  0  0  0
 21 22  1  0  0  0  0
 21 23  1  0  0  0  0
 21 51  1  0  0  0  0
 22 24  1  0  0  0  0
 22 52  1  0  0  0  0
 23 31  1  0  0  0  0
 23 53  1  0  0  0  0
 24 29  1  0  0  0  0
 24 54  1  0  0  0  0
 25 26  1  0  0  0  0
 25 27  1  0  0  0  0
 25 55  1  0  0  0  0
 26 28  1  0  0  0  0
 26 56  1  0  0  0  0
 27 30  1  0  0  0  0
 27 57  1  0  0  0  0
 28 32  1  0  0  0  0
 28 58  1  0  0  0  0
 29 59  1  0  0  0  0
 30 60  1  0  0  0  0
 31 61  1  0  0  0  0
 31 62  1  0  0  0  0
 32 63  1  0  0  0  0
 32 64  1  0  0  0  0
 33 35  1  0  0  0  0
 33 39  2  0  0  0  0
 34 36  1  0  0  0  0
 34 37  2  0  0  0  0
 35 36  2  0  0  0  0
 35 38  1  0  0  0  0
 36 71  1  0  0  0  0
 37 42  1  0  0  0  0
 38 40  1  0  0  0  0
 39 41  1  0  0  0  0
 39 72  1  0  0  0  0
 40 41  2  0  0  0  0
 40 74  1  0  0  0  0
 42 45  2  0  0  0  0
 42 46  1  0  0  0  0
 43 44  1  0  0  0  0
 44 50  1  0  0  0  0
 44 75  1  0  0  0  0
 44 76  1  0  0  0  0
 45 48  1  0  0  0  0
 45 77  1  0  0  0  0
 46 47  2  0  0  0  0
 46 78  1  0  0  0  0
 47 49  1  0  0  0  0
 48 49  2  0  0  0  0
M  CHG  1  13   1
M  END
> <PUBCHEM_COMPOUND_CID>
5316493

> <PUBCHEM_CONFORMER_RMSD>
1.4

> <PUBCHEM_CONFORMER_DIVERSEORDER>
1
44
27
2
36
46
30
51
41
38
12
42
45
34
35
9
47
20
32
17
8
48
40
25
22
49
28
13
37
31
33
7
14
43
15
23
11
39
6
3
50
21
5
4
29
18
19
26
24
16
10

> <PUBCHEM_MMFF94_PARTIAL_CHARGES>
67
1 -0.56
10 -0.68
11 -0.43
12 -0.68
13 -0.86
14 -0.53
15 -0.57
16 -0.53
17 -0.53
18 -0.53
19 -0.65
2 -0.56
20 -0.57
21 0.28
22 0.28
23 0.28
24 0.28
25 0.28
26 0.28
27 0.28
28 0.28
29 0.56
3 -0.36
30 0.56
31 0.28
32 0.28
33 0.08
34 0.08
35 0.01
36 -0.15
37 0.88
38 0.92
39 -0.15
4 -0.36
40 -0.14
41 0.08
42 0.03
43 0.66
44 0.12
45 -0.15
46 -0.15
47 0.08
48 0.08
49 0.08
5 -0.68
50 0.66
6 -0.68
65 0.4
66 0.4
67 0.4
68 0.4
69 0.4
7 -0.68
70 0.4
71 0.15
72 0.15
73 0.4
74 0.15
77 0.15
78 0.15
79 0.45
8 -0.68
80 0.45
81 0.45
82 0.45
83 0.5
9 -0.68

> <PUBCHEM_EFFECTIVE_ROTOR_COUNT>
13.4

> <PUBCHEM_PHARMACOPHORE_FEATURES>
32
1 1 acceptor
1 10 acceptor
1 10 donor
1 12 acceptor
1 12 donor
1 14 donor
1 15 acceptor
1 16 donor
1 17 donor
1 18 donor
1 19 acceptor
1 2 acceptor
1 20 acceptor
1 3 acceptor
1 4 acceptor
1 44 anion
1 5 acceptor
1 5 donor
1 6 acceptor
1 6 donor
1 7 acceptor
1 7 donor
1 8 acceptor
1 8 donor
1 9 acceptor
1 9 donor
3 19 20 50 anion
6 1 21 22 23 24 29 rings
6 13 34 35 36 37 38 rings
6 2 25 26 27 28 30 rings
6 33 35 38 39 40 41 rings
6 42 45 46 47 48 49 rings

> <PUBCHEM_HEAVY_ATOM_COUNT>
50

> <PUBCHEM_ATOM_DEF_STEREO_COUNT>
10

> <PUBCHEM_ATOM_UDEF_STEREO_COUNT>
0

> <PUBCHEM_BOND_DEF_STEREO_COUNT>
0

> <PUBCHEM_BOND_UDEF_STEREO_COUNT>
0

> <PUBCHEM_ISOTOPIC_ATOM_COUNT>
0

> <PUBCHEM_COMPONENT_COUNT>
1

> <PUBCHEM_CACTVS_TAUTO_COUNT>
71

> <PUBCHEM_CONFORMER_ID>
00511F8D00000001

> <PUBCHEM_MMFF94_ENERGY>
142.7792

> <PUBCHEM_FEATURE_SELFOVERLAP>
162.94

> <PUBCHEM_SHAPE_FINGERPRINT>
10258939 38 15553599578846672873
10581848 31 18271545142651641931
12633046 712 16950279615659591283
13636023 51 17489294275561711130
14068700 686 17551221200503821721
15392192 29 18060146410198338722
15968369 153 16733249218939901589
16628084 112 17907857301878251482
19301679 30 17912364535470038515
19311894 1 18201146716260924411
19319366 153 18041564616144111234
20764821 26 17988374757317150295
21781051 124 18336001817507761091
3383291 50 18272088241045026307
340366 18 18334864913003058048
4394409 98 18265896847981462119
460360 51 18268713981740215499
463206 1 18341899554460330386
4918855 1 13479131255120328957
5081480 168 17385442124540880108
6679774 75 18334870394015143211

> <PUBCHEM_SHAPE_MULTIPOLES>
911.59
13.66
6.32
3.25
3.31
3.24
-1.93
4.05
1.63
0.09
-1.66
-1.45
-2.05
-2.01

> <PUBCHEM_SHAPE_SELFOVERLAP>
1973.122

> <PUBCHEM_SHAPE_VOLUME>
488.4

> <PUBCHEM_COORDINATE_TYPE>
2
5
10

$$$$
