5317320
  -OEChem-03052615053D

 39 38  0     0  0  0  0  0  0999 V2000
    1.1440    1.3554    1.3644 C   0  0  0  0  0  0  0  0  0  0  0  0
    1.9190    0.0411    1.5390 C   0  0  0  0  0  0  0  0  0  0  0  0
    1.2108    1.9351   -0.0335 C   0  0  0  0  0  0  0  0  0  0  0  0
    0.1445    2.2384   -0.8003 C   0  0  0  0  0  0  0  0  0  0  0  0
    1.3332   -1.0895    0.7397 C   0  0  0  0  0  0  0  0  0  0  0  0
   -1.3167    2.0481   -0.4974 C   0  0  0  0  0  0  0  0  0  0  0  0
    2.6008    2.2175   -0.5480 C   0  0  0  0  0  0  0  0  0  0  0  0
    1.9485   -1.8892   -0.1519 C   0  0  0  0  0  0  0  0  0  0  0  0
   -1.8493    0.7805   -1.1086 C   0  0  0  0  0  0  0  0  0  0  0  0
    1.1849   -2.9882   -0.8426 C   0  0  0  0  0  0  0  0  0  0  0  0
    3.3919   -1.7966   -0.5564 C   0  0  0  0  0  0  0  0  0  0  0  0
   -2.5140   -0.2290   -0.5075 C   0  0  0  0  0  0  0  0  0  0  0  0
   -2.9977   -1.4668   -1.2168 C   0  0  0  0  0  0  0  0  0  0  0  0
   -2.7798   -0.1310    0.9283 C   0  0  0  0  0  0  0  0  0  0  0  0
   -3.4201   -1.0259    1.6916 C   0  0  0  0  0  0  0  0  0  0  0  0
    0.1090    1.1981    1.6845 H   0  0  0  0  0  0  0  0  0  0  0  0
    1.5591    2.0974    2.0590 H   0  0  0  0  0  0  0  0  0  0  0  0
    2.9804    0.2005    1.3356 H   0  0  0  0  0  0  0  0  0  0  0  0
    1.8623   -0.2451    2.5973 H   0  0  0  0  0  0  0  0  0  0  0  0
    0.3356    2.6573   -1.7887 H   0  0  0  0  0  0  0  0  0  0  0  0
    0.2810   -1.2801    0.9477 H   0  0  0  0  0  0  0  0  0  0  0  0
   -1.4916    2.1677    0.5706 H   0  0  0  0  0  0  0  0  0  0  0  0
   -1.8578    2.8866   -0.9560 H   0  0  0  0  0  0  0  0  0  0  0  0
    2.5887    2.8048   -1.4726 H   0  0  0  0  0  0  0  0  0  0  0  0
    3.1708    2.7906    0.1907 H   0  0  0  0  0  0  0  0  0  0  0  0
    3.1352    1.2875   -0.7597 H   0  0  0  0  0  0  0  0  0  0  0  0
   -1.6785    0.6886   -2.1816 H   0  0  0  0  0  0  0  0  0  0  0  0
    1.2009   -2.8367   -1.9269 H   0  0  0  0  0  0  0  0  0  0  0  0
    0.1362   -3.0287   -0.5296 H   0  0  0  0  0  0  0  0  0  0  0  0
    1.6352   -3.9611   -0.6199 H   0  0  0  0  0  0  0  0  0  0  0  0
    3.4676   -1.5639   -1.6239 H   0  0  0  0  0  0  0  0  0  0  0  0
    3.9543   -1.0350   -0.0140 H   0  0  0  0  0  0  0  0  0  0  0  0
    3.8936   -2.7537   -0.3774 H   0  0  0  0  0  0  0  0  0  0  0  0
   -2.5366   -2.3659   -0.7945 H   0  0  0  0  0  0  0  0  0  0  0  0
   -2.7393   -1.4406   -2.2813 H   0  0  0  0  0  0  0  0  0  0  0  0
   -4.0871   -1.5564   -1.1498 H   0  0  0  0  0  0  0  0  0  0  0  0
   -2.4434    0.7442    1.4706 H   0  0  0  0  0  0  0  0  0  0  0  0
   -3.5565   -0.8365    2.7519 H   0  0  0  0  0  0  0  0  0  0  0  0
   -3.8206   -1.9544    1.3018 H   0  0  0  0  0  0  0  0  0  0  0  0
  1  2  1  0  0  0  0
  1  3  1  0  0  0  0
  1 16  1  0  0  0  0
  1 17  1  0  0  0  0
  2  5  1  0  0  0  0
  2 18  1  0  0  0  0
  2 19  1  0  0  0  0
  3  4  2  0  0  0  0
  3  7  1  0  0  0  0
  4  6  1  0  0  0  0
  4 20  1  0  0  0  0
  5  8  2  0  0  0  0
  5 21  1  0  0  0  0
  6  9  1  0  0  0  0
  6 22  1  0  0  0  0
  6 23  1  0  0  0  0
  7 24  1  0  0  0  0
  7 25  1  0  0  0  0
  7 26  1  0  0  0  0
  8 10  1  0  0  0  0
  8 11  1  0  0  0  0
  9 12  2  0  0  0  0
  9 27  1  0  0  0  0
 10 28  1  0  0  0  0
 10 29  1  0  0  0  0
 10 30  1  0  0  0  0
 11 31  1  0  0  0  0
 11 32  1  0  0  0  0
 11 33  1  0  0  0  0
 12 13  1  0  0  0  0
 12 14  1  0  0  0  0
 13 34  1  0  0  0  0
 13 35  1  0  0  0  0
 13 36  1  0  0  0  0
 14 15  2  0  0  0  0
 14 37  1  0  0  0  0
 15 38  1  0  0  0  0
 15 39  1  0  0  0  0
M  END
> <PUBCHEM_COMPOUND_CID>
5317320

> <PUBCHEM_CONFORMER_RMSD>
0.8

> <PUBCHEM_CONFORMER_DIVERSEORDER>
1
143
160
68
233
339
331
91
278
283
13
187
303
176
282
114
196
315
185
304
50
120
31
158
248
216
115
275
125
206
261
236
149
271
324
193
219
5
205
235
109
257
164
337
241
238
108
306
180
104
59
298
106
266
320
46
53
213
272
184
249
311
93
321
130
117
234
252
289
183
256
170
26
222
301
86
314
78
245
333
56
162
64
92
328
293
144
16
139
72
276
199
218
334
191
74
84
27
326
90
318
291
113
220
316
217
215
174
39
66
244
239
75
296
71
14
29
243
290
212
277
122
179
335
70
146
211
112
232
85
186
28
119
323
263
43
221
279
35
287
254
80
54
136
23
308
317
312
73
341
190
3
260
336
194
319
4
201
161
169
141
98
151
262
94
111
182
200
292
105
67
163
307
96
19
127
137
251
177
209
15
300
214
135
313
227
268
18
25
210
100
138
134
264
155
9
294
188
87
95
89
8
258
330
165
58
10
332
224
309
286
17
247
173
267
297
274
229
103
49
51
102
48
181
128
192
7
342
273
171
52
76
30
41
189
77
33
101
270
295
175
132
116
118
11
154
153
148
255
131
55
338
250
99
299
265
110
159
2
285
88
45
288
63
280
38
197
225
204
44
6
126
20
325
79
81
12
172
69
147
284
203
57
145
22
223
207
231
152
168
32
121
36
21
246
228
40
124
61
230
208
167
24
156
202
123
281
195
140
129
198
62
269
178
47
310
142
60
302
133
65
82
242
42
107
34
322
237
340
37
97
166
83
259
240
157
329
150
253
327
305
226

> <PUBCHEM_MMFF94_PARTIAL_CHARGES>
21
1 0.14
10 0.14
11 0.14
12 -0.14
13 0.14
14 -0.15
15 -0.3
2 0.14
20 0.15
21 0.15
27 0.15
3 -0.28
37 0.15
38 0.15
39 0.15
4 -0.29
5 -0.29
6 0.28
7 0.14
8 -0.28
9 -0.29

> <PUBCHEM_EFFECTIVE_ROTOR_COUNT>
6

> <PUBCHEM_PHARMACOPHORE_FEATURES>
5
1 13 hydrophobe
1 15 hydrophobe
1 7 hydrophobe
3 8 10 11 hydrophobe
4 1 2 3 5 hydrophobe

> <PUBCHEM_HEAVY_ATOM_COUNT>
15

> <PUBCHEM_ATOM_DEF_STEREO_COUNT>
0

> <PUBCHEM_ATOM_UDEF_STEREO_COUNT>
0

> <PUBCHEM_BOND_DEF_STEREO_COUNT>
2

> <PUBCHEM_BOND_UDEF_STEREO_COUNT>
0

> <PUBCHEM_ISOTOPIC_ATOM_COUNT>
0

> <PUBCHEM_COMPONENT_COUNT>
1

> <PUBCHEM_CACTVS_TAUTO_COUNT>
1

> <PUBCHEM_CONFORMER_ID>
005122C800000001

> <PUBCHEM_MMFF94_ENERGY>
17.9372

> <PUBCHEM_FEATURE_SELFOVERLAP>
25.395

> <PUBCHEM_SHAPE_FINGERPRINT>
10064457 181 17912662485307338979
11140007 195 18197795310224434513
12054548 360 18267866086529606622
12596599 1 17703794712420013751
12715332 25 18048885383852815300
12841375 5 18338819869355397396
14251745 187 18264481793886300458
14251757 17 17830692571350464781
17990270 104 18263065687017995965
19766037 51 18187377492969067291
20645477 70 18262503918744700637
20871999 31 17829322484624336716
22713034 7 18265888241162497117
22721475 48 18266734671430821677
22802520 49 17979069384263622298
23419403 2 14858148733013203353
2748010 2 18263625334226047236
576247 118 18263097521484165275
598444 67 17474109800337450221
81228 2 17618210720384288456

> <PUBCHEM_SHAPE_MULTIPOLES>
308.69
5.39
3.32
1.53
2.3
0.26
0.49
2.37
0.33
-2.22
-1.13
0.64
0.16
0.54

> <PUBCHEM_SHAPE_SELFOVERLAP>
581.598

> <PUBCHEM_SHAPE_VOLUME>
193.3

> <PUBCHEM_COORDINATE_TYPE>
2
5
10

$$$$
