5318569
  -OEChem-03052615063D

 64 69  0     0  0  0  0  0  0999 V2000
   -2.4400   -0.0641    0.1095 O   0  0  0  0  0  0  0  0  0  0  0  0
    2.8446    0.3257    0.2812 O   0  0  0  0  0  0  0  0  0  0  0  0
   -2.3357    1.9976   -2.9440 O   0  0  0  0  0  0  0  0  0  0  0  0
   -1.2535    4.5233   -0.4080 O   0  0  0  0  0  0  0  0  0  0  0  0
   -4.7899    3.4110    2.5379 O   0  0  0  0  0  0  0  0  0  0  0  0
   -5.3854    0.8657    2.7662 O   0  0  0  0  0  0  0  0  0  0  0  0
    6.2682    0.9141   -1.8474 O   0  0  0  0  0  0  0  0  0  0  0  0
    7.6791   -0.0063    0.1646 O   0  0  0  0  0  0  0  0  0  0  0  0
    5.2467   -1.3696    4.0092 O   0  0  0  0  0  0  0  0  0  0  0  0
   -2.0013   -6.2749   -0.9917 O   0  0  0  0  0  0  0  0  0  0  0  0
   -1.8512    2.2080   -0.1478 C   0  0  0  0  0  0  0  0  0  0  0  0
   -0.8165    1.8180   -1.0901 C   0  0  0  0  0  0  0  0  0  0  0  0
   -2.6643    1.2454    0.4511 C   0  0  0  0  0  0  0  0  0  0  0  0
   -3.6537    1.6329    1.3532 C   0  0  0  0  0  0  0  0  0  0  0  0
    1.4672    1.1563   -1.5018 C   0  0  0  0  0  0  0  0  0  0  0  0
    0.4611    1.5341   -0.6125 C   0  0  0  0  0  0  0  0  0  0  0  0
   -2.0315    3.5569    0.1596 C   0  0  0  0  0  0  0  0  0  0  0  0
   -1.0932    1.7262   -2.4523 C   0  0  0  0  0  0  0  0  0  0  0  0
   -3.8376    2.9824    1.6634 C   0  0  0  0  0  0  0  0  0  0  0  0
    2.8229    0.8545   -1.0003 C   0  0  0  0  0  0  0  0  0  0  0  0
   -3.0225    3.9430    1.0633 C   0  0  0  0  0  0  0  0  0  0  0  0
   -3.2277   -1.0437    0.6949 C   0  0  0  0  0  0  0  0  0  0  0  0
   -4.4974    0.5973    1.9689 C   0  0  0  0  0  0  0  0  0  0  0  0
    1.1930    1.0634   -2.8664 C   0  0  0  0  0  0  0  0  0  0  0  0
   -0.0872    1.3484   -3.3417 C   0  0  0  0  0  0  0  0  0  0  0  0
   -4.2143   -0.7965    1.5712 C   0  0  0  0  0  0  0  0  0  0  0  0
   -2.9059   -2.4156    0.2535 C   0  0  0  0  0  0  0  0  0  0  0  0
    5.2666    0.1833    0.1644 C   0  0  0  0  0  0  0  0  0  0  0  0
    4.0581    0.0067    0.8360 C   0  0  0  0  0  0  0  0  0  0  0  0
    3.9167    1.0651   -1.7497 C   0  0  0  0  0  0  0  0  0  0  0  0
    5.2466    0.7350   -1.1989 C   0  0  0  0  0  0  0  0  0  0  0  0
    6.4732   -0.1599    0.7788 C   0  0  0  0  0  0  0  0  0  0  0  0
    4.0493   -0.5159    2.1296 C   0  0  0  0  0  0  0  0  0  0  0  0
   -3.9078   -3.3875    0.1965 C   0  0  0  0  0  0  0  0  0  0  0  0
   -1.5985   -2.7473   -0.1103 C   0  0  0  0  0  0  0  0  0  0  0  0
    5.2523   -0.8597    2.7468 C   0  0  0  0  0  0  0  0  0  0  0  0
    6.4614   -0.6820    2.0728 C   0  0  0  0  0  0  0  0  0  0  0  0
   -3.6042   -4.6832   -0.2212 C   0  0  0  0  0  0  0  0  0  0  0  0
   -1.2949   -4.0428   -0.5283 C   0  0  0  0  0  0  0  0  0  0  0  0
   -2.2976   -5.0110   -0.5836 C   0  0  0  0  0  0  0  0  0  0  0  0
   -3.2501    0.9071   -3.0291 C   0  0  0  0  0  0  0  0  0  0  0  0
   -0.6454   -6.5414   -1.3476 C   0  0  0  0  0  0  0  0  0  0  0  0
    0.6668    1.6173    0.4531 H   0  0  0  0  0  0  0  0  0  0  0  0
   -3.1659    4.9936    1.3051 H   0  0  0  0  0  0  0  0  0  0  0  0
    1.9424    0.7508   -3.5884 H   0  0  0  0  0  0  0  0  0  0  0  0
   -0.2950    1.2693   -4.4055 H   0  0  0  0  0  0  0  0  0  0  0  0
   -4.8204   -1.5648    2.0368 H   0  0  0  0  0  0  0  0  0  0  0  0
    3.8985    1.4903   -2.7463 H   0  0  0  0  0  0  0  0  0  0  0  0
    3.1088   -0.6553    2.6566 H   0  0  0  0  0  0  0  0  0  0  0  0
   -4.9415   -3.1667    0.4489 H   0  0  0  0  0  0  0  0  0  0  0  0
   -0.7967   -2.0137   -0.0692 H   0  0  0  0  0  0  0  0  0  0  0  0
   -1.5285    5.3935   -0.0719 H   0  0  0  0  0  0  0  0  0  0  0  0
   -5.2905    2.6596    2.8908 H   0  0  0  0  0  0  0  0  0  0  0  0
    7.3997   -0.9497    2.5530 H   0  0  0  0  0  0  0  0  0  0  0  0
   -4.3901   -5.4321   -0.2672 H   0  0  0  0  0  0  0  0  0  0  0  0
   -0.2600   -4.2295   -0.7940 H   0  0  0  0  0  0  0  0  0  0  0  0
   -4.0366    1.0397   -2.2812 H   0  0  0  0  0  0  0  0  0  0  0  0
   -2.7635   -0.0635   -2.8809 H   0  0  0  0  0  0  0  0  0  0  0  0
   -3.7095    0.9204   -4.0215 H   0  0  0  0  0  0  0  0  0  0  0  0
    7.5637    0.3639   -0.7239 H   0  0  0  0  0  0  0  0  0  0  0  0
    6.1631   -1.5510    4.2803 H   0  0  0  0  0  0  0  0  0  0  0  0
    0.0269   -6.4175   -0.4920 H   0  0  0  0  0  0  0  0  0  0  0  0
   -0.3318   -5.9461   -2.2119 H   0  0  0  0  0  0  0  0  0  0  0  0
   -0.5907   -7.5932   -1.6473 H   0  0  0  0  0  0  0  0  0  0  0  0
  1 13  1  0  0  0  0
  1 22  1  0  0  0  0
  2 20  1  0  0  0  0
  2 29  1  0  0  0  0
  3 18  1  0  0  0  0
  3 41  1  0  0  0  0
  4 17  1  0  0  0  0
  4 52  1  0  0  0  0
  5 19  1  0  0  0  0
  5 53  1  0  0  0  0
  6 23  2  0  0  0  0
  7 31  2  0  0  0  0
  8 32  1  0  0  0  0
  8 60  1  0  0  0  0
  9 36  1  0  0  0  0
  9 61  1  0  0  0  0
 10 40  1  0  0  0  0
 10 42  1  0  0  0  0
 11 12  1  0  0  0  0
 11 13  1  0  0  0  0
 11 17  2  0  0  0  0
 12 16  1  0  0  0  0
 12 18  2  0  0  0  0
 13 14  2  0  0  0  0
 14 19  1  0  0  0  0
 14 23  1  0  0  0  0
 15 16  2  0  0  0  0
 15 20  1  0  0  0  0
 15 24  1  0  0  0  0
 16 43  1  0  0  0  0
 17 21  1  0  0  0  0
 18 25  1  0  0  0  0
 19 21  2  0  0  0  0
 20 30  2  0  0  0  0
 21 44  1  0  0  0  0
 22 26  2  0  0  0  0
 22 27  1  0  0  0  0
 23 26  1  0  0  0  0
 24 25  2  0  0  0  0
 24 45  1  0  0  0  0
 25 46  1  0  0  0  0
 26 47  1  0  0  0  0
 27 34  2  0  0  0  0
 27 35  1  0  0  0  0
 28 29  1  0  0  0  0
 28 31  1  0  0  0  0
 28 32  2  0  0  0  0
 29 33  2  0  0  0  0
 30 31  1  0  0  0  0
 30 48  1  0  0  0  0
 32 37  1  0  0  0  0
 33 36  1  0  0  0  0
 33 49  1  0  0  0  0
 34 38  1  0  0  0  0
 34 50  1  0  0  0  0
 35 39  2  0  0  0  0
 35 51  1  0  0  0  0
 36 37  2  0  0  0  0
 37 54  1  0  0  0  0
 38 40  2  0  0  0  0
 38 55  1  0  0  0  0
 39 40  1  0  0  0  0
 39 56  1  0  0  0  0
 41 57  1  0  0  0  0
 41 58  1  0  0  0  0
 41 59  1  0  0  0  0
 42 62  1  0  0  0  0
 42 63  1  0  0  0  0
 42 64  1  0  0  0  0
M  END
> <PUBCHEM_COMPOUND_CID>
5318569

> <PUBCHEM_CONFORMER_RMSD>
1

> <PUBCHEM_CONFORMER_DIVERSEORDER>
1
12
11
5
4
10
6
9
8
2
7
3

> <PUBCHEM_MMFF94_PARTIAL_CHARGES>
56
1 -0.16
10 -0.36
13 0.08
14 0.09
15 0.03
16 -0.15
17 0.08
18 0.08
19 0.08
2 -0.16
20 0.05
21 -0.15
22 0.05
23 0.47
24 -0.15
25 -0.15
26 -0.14
27 0.03
28 0.09
29 0.08
3 -0.36
30 -0.14
31 0.47
32 0.08
33 -0.15
34 -0.15
35 -0.15
36 0.08
37 -0.15
38 -0.15
39 -0.15
4 -0.53
40 0.08
41 0.28
42 0.28
43 0.15
44 0.15
45 0.15
46 0.15
47 0.15
48 0.15
49 0.15
5 -0.53
50 0.15
51 0.15
52 0.45
53 0.45
54 0.15
55 0.15
56 0.15
6 -0.57
60 0.45
61 0.45
7 -0.57
8 -0.53
9 -0.53

> <PUBCHEM_EFFECTIVE_ROTOR_COUNT>
5

> <PUBCHEM_PHARMACOPHORE_FEATURES>
16
1 1 acceptor
1 10 acceptor
1 2 acceptor
1 3 acceptor
1 4 donor
1 5 donor
1 6 acceptor
1 7 acceptor
1 8 donor
1 9 donor
6 1 13 14 22 23 26 rings
6 11 13 14 17 19 21 rings
6 12 15 16 18 24 25 rings
6 2 20 28 29 30 31 rings
6 27 34 35 38 39 40 rings
6 28 29 32 33 36 37 rings

> <PUBCHEM_HEAVY_ATOM_COUNT>
42

> <PUBCHEM_ATOM_DEF_STEREO_COUNT>
0

> <PUBCHEM_ATOM_UDEF_STEREO_COUNT>
0

> <PUBCHEM_BOND_DEF_STEREO_COUNT>
0

> <PUBCHEM_BOND_UDEF_STEREO_COUNT>
0

> <PUBCHEM_ISOTOPIC_ATOM_COUNT>
0

> <PUBCHEM_COMPONENT_COUNT>
1

> <PUBCHEM_CACTVS_TAUTO_COUNT>
144

> <PUBCHEM_CONFORMER_ID>
005127A900000001

> <PUBCHEM_MMFF94_ENERGY>
161.1864

> <PUBCHEM_FEATURE_SELFOVERLAP>
81.26

> <PUBCHEM_SHAPE_FINGERPRINT>
10074138 170 18272089417944503767
10290309 65 18124044420634294201
10462674 125 17474644614092172594
10622 236 17972313181564001023
11135926 11 16444767158284801668
12128747 34 17487360178283260974
12422481 6 17969793964169247584
12559416 138 17313095359404186722
14040221 299 18201734937395415020
14068700 675 18197773517655664151
14395042 24 18338245976886493339
14674994 50 18189597467344180183
14705955 166 17417550024556573377
14856354 85 18343304777839471428
14950920 106 18412259579865049752
15320294 125 18187377536230145539
15361156 5 15141815969292170124
15444296 9 17676770861105988685
15484559 13 15439837358358755150
15513586 35 18129654343982963984
16728300 4 17894925018548423521
18603816 31 17318126647202737210
20775530 9 17901103336813431943
21133410 90 18125986395141078653
3882209 13 17699563955507802295
4394409 98 18410012174472613895
44880168 125 18337958896518446830
469060 322 16844715555922069109
484985 159 18336817663261157991
50080093 196 18113328726619310450
5171179 24 17039235316859800437
581034 39 18412269415181765858

> <PUBCHEM_SHAPE_MULTIPOLES>
805.65
14.15
7.06
3.35
28.01
12.83
0.03
0.42
-9.94
-12.74
1.88
1.11
-1.53
-4.15

> <PUBCHEM_SHAPE_SELFOVERLAP>
1827.024

> <PUBCHEM_SHAPE_VOLUME>
419.1

> <PUBCHEM_COORDINATE_TYPE>
2
5
10

$$$$
