5318625
  -OEChem-03052615003D

 38 39  0     0  0  0  0  0  0999 V2000
   -0.2933    1.8304   -0.7249 O   0  0  0  0  0  0  0  0  0  0  0  0
    1.5040   -2.6121   -0.4300 O   0  0  0  0  0  0  0  0  0  0  0  0
   -2.8793   -1.7851    1.1945 O   0  0  0  0  0  0  0  0  0  0  0  0
   -1.1765    3.9395   -0.8535 O   0  0  0  0  0  0  0  0  0  0  0  0
    0.6152   -0.3849   -0.5840 C   0  0  0  0  0  0  0  0  0  0  0  0
    3.0229    0.6614    0.9507 C   0  0  0  0  0  0  0  0  0  0  0  0
   -0.4491    0.4818   -0.3446 C   0  0  0  0  0  0  0  0  0  0  0  0
   -1.6305    0.0448    0.2485 C   0  0  0  0  0  0  0  0  0  0  0  0
    0.4909   -1.7237   -0.2189 C   0  0  0  0  0  0  0  0  0  0  0  0
    1.8439    0.0937   -1.2073 C   0  0  0  0  0  0  0  0  0  0  0  0
    2.9276    0.5633   -0.5523 C   0  0  0  0  0  0  0  0  0  0  0  0
   -1.7469   -1.2989    0.6111 C   0  0  0  0  0  0  0  0  0  0  0  0
   -0.6871   -2.1800    0.3771 C   0  0  0  0  0  0  0  0  0  0  0  0
    4.1708   -0.2074    1.4638 C   0  0  0  0  0  0  0  0  0  0  0  0
    3.2194    2.1169    1.3733 C   0  0  0  0  0  0  0  0  0  0  0  0
   -2.7002    1.0029    0.4689 C   0  0  0  0  0  0  0  0  0  0  0  0
   -2.5451    2.2785    0.1055 C   0  0  0  0  0  0  0  0  0  0  0  0
   -1.3037    2.7652   -0.5245 C   0  0  0  0  0  0  0  0  0  0  0  0
    1.5094   -3.3020   -1.6774 C   0  0  0  0  0  0  0  0  0  0  0  0
   -3.8923   -2.2841    0.3241 C   0  0  0  0  0  0  0  0  0  0  0  0
    2.1066    0.3056    1.4344 H   0  0  0  0  0  0  0  0  0  0  0  0
    1.8595    0.0630   -2.2938 H   0  0  0  0  0  0  0  0  0  0  0  0
    3.7831    0.8928   -1.1374 H   0  0  0  0  0  0  0  0  0  0  0  0
   -0.7795   -3.2255    0.6623 H   0  0  0  0  0  0  0  0  0  0  0  0
    4.0207   -1.2573    1.1885 H   0  0  0  0  0  0  0  0  0  0  0  0
    4.2373   -0.1557    2.5560 H   0  0  0  0  0  0  0  0  0  0  0  0
    5.1347    0.1144    1.0532 H   0  0  0  0  0  0  0  0  0  0  0  0
    2.3842    2.7395    1.0331 H   0  0  0  0  0  0  0  0  0  0  0  0
    3.2736    2.1996    2.4642 H   0  0  0  0  0  0  0  0  0  0  0  0
    4.1432    2.5360    0.9585 H   0  0  0  0  0  0  0  0  0  0  0  0
   -3.6245    0.6817    0.9351 H   0  0  0  0  0  0  0  0  0  0  0  0
   -3.3381    3.0002    0.2686 H   0  0  0  0  0  0  0  0  0  0  0  0
    2.3984   -3.9378   -1.7126 H   0  0  0  0  0  0  0  0  0  0  0  0
    1.5500   -2.5995   -2.5155 H   0  0  0  0  0  0  0  0  0  0  0  0
    0.6224   -3.9375   -1.7651 H   0  0  0  0  0  0  0  0  0  0  0  0
   -3.5313   -3.1679   -0.2114 H   0  0  0  0  0  0  0  0  0  0  0  0
   -4.2096   -1.5182   -0.3904 H   0  0  0  0  0  0  0  0  0  0  0  0
   -4.7542   -2.5727    0.9320 H   0  0  0  0  0  0  0  0  0  0  0  0
  1  7  1  0  0  0  0
  1 18  1  0  0  0  0
  2  9  1  0  0  0  0
  2 19  1  0  0  0  0
  3 12  1  0  0  0  0
  3 20  1  0  0  0  0
  4 18  2  0  0  0  0
  5  7  1  0  0  0  0
  5  9  2  0  0  0  0
  5 10  1  0  0  0  0
  6 11  1  0  0  0  0
  6 14  1  0  0  0  0
  6 15  1  0  0  0  0
  6 21  1  0  0  0  0
  7  8  2  0  0  0  0
  8 12  1  0  0  0  0
  8 16  1  0  0  0  0
  9 13  1  0  0  0  0
 10 11  2  0  0  0  0
 10 22  1  0  0  0  0
 11 23  1  0  0  0  0
 12 13  2  0  0  0  0
 13 24  1  0  0  0  0
 14 25  1  0  0  0  0
 14 26  1  0  0  0  0
 14 27  1  0  0  0  0
 15 28  1  0  0  0  0
 15 29  1  0  0  0  0
 15 30  1  0  0  0  0
 16 17  2  0  0  0  0
 16 31  1  0  0  0  0
 17 18  1  0  0  0  0
 17 32  1  0  0  0  0
 19 33  1  0  0  0  0
 19 34  1  0  0  0  0
 19 35  1  0  0  0  0
 20 36  1  0  0  0  0
 20 37  1  0  0  0  0
 20 38  1  0  0  0  0
M  END
> <PUBCHEM_COMPOUND_CID>
5318625

> <PUBCHEM_CONFORMER_RMSD>
0.6

> <PUBCHEM_CONFORMER_DIVERSEORDER>
1
5
4
3
6
2

> <PUBCHEM_MMFF94_PARTIAL_CHARGES>
23
1 -0.23
10 -0.18
11 -0.29
12 0.08
13 -0.15
16 -0.18
17 -0.14
18 0.71
19 0.28
2 -0.36
20 0.28
22 0.15
23 0.15
24 0.15
3 -0.36
31 0.15
32 0.15
4 -0.57
5 0.03
6 0.14
7 0.08
8 0.03
9 0.08

> <PUBCHEM_EFFECTIVE_ROTOR_COUNT>
4

> <PUBCHEM_PHARMACOPHORE_FEATURES>
6
1 2 acceptor
1 3 acceptor
1 4 acceptor
3 6 14 15 hydrophobe
6 1 7 8 16 17 18 rings
6 5 7 8 9 12 13 rings

> <PUBCHEM_HEAVY_ATOM_COUNT>
20

> <PUBCHEM_ATOM_DEF_STEREO_COUNT>
0

> <PUBCHEM_ATOM_UDEF_STEREO_COUNT>
0

> <PUBCHEM_BOND_DEF_STEREO_COUNT>
1

> <PUBCHEM_BOND_UDEF_STEREO_COUNT>
0

> <PUBCHEM_ISOTOPIC_ATOM_COUNT>
0

> <PUBCHEM_COMPONENT_COUNT>
1

> <PUBCHEM_CACTVS_TAUTO_COUNT>
1

> <PUBCHEM_CONFORMER_ID>
005127E100000001

> <PUBCHEM_MMFF94_ENERGY>
80.5119

> <PUBCHEM_FEATURE_SELFOVERLAP>
30.475

> <PUBCHEM_SHAPE_FINGERPRINT>
10906281 52 18190197856622303243
10967382 1 18263662705189878037
1100329 8 16038025453171138624
11680986 33 18195534696547305934
12403259 226 18342460348297594090
12553582 1 18119552039699052907
12633257 1 18264761078487901456
13004483 165 17551198072648146878
13140716 1 18409450331676703969
13544592 271 18337101363120481477
14081887 123 18342182146154522169
14178342 30 18410866447055542345
14223421 5 18412266094934266210
14420673 8 18047176459695381226
16945 1 18263376823239300085
19049666 15 18125446302291494996
20510252 161 18341339992972036784
20905425 154 18338806615081541006
21524375 3 18269542880247631500
22182313 1 18336558118651464255
2334 1 18120950656864779901
23402539 116 18268418200190979671
23558518 356 18120925114746699965
23559900 14 18338529559805188572
2748010 2 18265071170879424263
3250762 1 18268432321711068022
34934 24 17687189003296449540
350125 39 17688047322562127173
3524813 1 18059015115411340544
4072396 5 18263637523670501867
484985 159 16014322443281676418
7097593 13 17751624473825142962
7364860 26 17912077249021715678
81228 2 18262539025765290321
84936 182 17402036808536415073
90316 7 18261392294913894121

> <PUBCHEM_SHAPE_MULTIPOLES>
388.11
5.76
4.08
1.3
1.86
0.78
0
-0.09
2.8
-1.64
-1.33
0.88
-0.22
1.58

> <PUBCHEM_SHAPE_SELFOVERLAP>
819.764

> <PUBCHEM_SHAPE_VOLUME>
219.2

> <PUBCHEM_COORDINATE_TYPE>
2
5
10

$$$$
