5319306
  -OEChem-03052615073D

 23 22  0     0  0  0  0  0  0999 V2000
    3.8148    1.0185   -0.3828 O   0  0  0  0  0  0  0  0  0  0  0  0
    1.6992    0.9127    0.5401 O   0  0  0  0  0  0  0  0  0  0  0  0
   -3.9333    1.8379    0.8463 C   0  0  0  0  0  0  0  0  0  0  0  0
    3.0806   -1.0398    0.3113 C   0  0  0  0  0  0  0  0  0  0  0  0
    2.7479    0.3964    0.1878 C   0  0  0  0  0  0  0  0  0  0  0  0
   -4.7287    0.9024   -0.0038 C   0  0  0  0  0  0  0  0  0  0  0  0
    3.6702    2.4287   -0.5819 C   0  0  0  0  0  0  0  0  0  0  0  0
    2.1047   -1.9541    0.2560 C   0  0  0  0  0  0  0  0  0  0  0  0
   -4.2225   -0.2044   -0.5637 C   0  0  0  0  0  0  0  0  0  0  0  0
    0.7466   -1.5730    0.0801 C   0  0  0  0  0  0  0  0  0  0  0  0
   -2.8629   -0.5756   -0.3848 C   0  0  0  0  0  0  0  0  0  0  0  0
   -0.4021   -1.2562   -0.0678 C   0  0  0  0  0  0  0  0  0  0  0  0
   -1.7145   -0.8934   -0.2369 C   0  0  0  0  0  0  0  0  0  0  0  0
    4.1201   -1.3332    0.4037 H   0  0  0  0  0  0  0  0  0  0  0  0
   -3.9509    2.8377    0.4000 H   0  0  0  0  0  0  0  0  0  0  0  0
   -4.3924    1.9067    1.8380 H   0  0  0  0  0  0  0  0  0  0  0  0
   -2.8866    1.5590    0.9871 H   0  0  0  0  0  0  0  0  0  0  0  0
   -5.7748    1.1449   -0.1691 H   0  0  0  0  0  0  0  0  0  0  0  0
    3.5296    2.9340    0.3784 H   0  0  0  0  0  0  0  0  0  0  0  0
    2.8299    2.6321   -1.2526 H   0  0  0  0  0  0  0  0  0  0  0  0
    4.5874    2.8026   -1.0445 H   0  0  0  0  0  0  0  0  0  0  0  0
    2.3442   -3.0096    0.3279 H   0  0  0  0  0  0  0  0  0  0  0  0
   -4.8568   -0.8414   -1.1710 H   0  0  0  0  0  0  0  0  0  0  0  0
  1  5  1  0  0  0  0
  1  7  1  0  0  0  0
  2  5  2  0  0  0  0
  3  6  1  0  0  0  0
  3 15  1  0  0  0  0
  3 16  1  0  0  0  0
  3 17  1  0  0  0  0
  4  5  1  0  0  0  0
  4  8  2  0  0  0  0
  4 14  1  0  0  0  0
  6  9  2  0  0  0  0
  6 18  1  0  0  0  0
  7 19  1  0  0  0  0
  7 20  1  0  0  0  0
  7 21  1  0  0  0  0
  8 10  1  0  0  0  0
  8 22  1  0  0  0  0
  9 11  1  0  0  0  0
  9 23  1  0  0  0  0
 10 12  3  0  0  0  0
 11 13  3  0  0  0  0
 12 13  1  0  0  0  0
M  END
> <PUBCHEM_COMPOUND_CID>
5319306

> <PUBCHEM_CONFORMER_RMSD>
0.6

> <PUBCHEM_CONFORMER_DIVERSEORDER>
1
2
3

> <PUBCHEM_MMFF94_PARTIAL_CHARGES>
15
1 -0.43
10 -0.06
11 -0.06
14 0.15
18 0.15
2 -0.57
22 0.15
23 0.15
3 0.14
4 -0.14
5 0.71
6 -0.29
7 0.28
8 -0.09
9 -0.09

> <PUBCHEM_EFFECTIVE_ROTOR_COUNT>
2

> <PUBCHEM_PHARMACOPHORE_FEATURES>
2
1 2 acceptor
1 3 hydrophobe

> <PUBCHEM_HEAVY_ATOM_COUNT>
13

> <PUBCHEM_ATOM_DEF_STEREO_COUNT>
0

> <PUBCHEM_ATOM_UDEF_STEREO_COUNT>
0

> <PUBCHEM_BOND_DEF_STEREO_COUNT>
2

> <PUBCHEM_BOND_UDEF_STEREO_COUNT>
0

> <PUBCHEM_ISOTOPIC_ATOM_COUNT>
0

> <PUBCHEM_COMPONENT_COUNT>
1

> <PUBCHEM_CACTVS_TAUTO_COUNT>
1

> <PUBCHEM_CONFORMER_ID>
00512A8A00000001

> <PUBCHEM_MMFF94_ENERGY>
17.1118

> <PUBCHEM_FEATURE_SELFOVERLAP>
10.148

> <PUBCHEM_SHAPE_FINGERPRINT>
10382601 240 17822283605036682104
10465860 228 18408323276560275934
122479 349 18261111932281036882
14123255 52 18266177416947082148
14123260 362 18202571670197388409
14415576 193 18271525308207812687
15342168 16 18260267494602757277
17834072 32 18117843433021032028
18186145 218 18262796268341747231
212847 35 18342735195944419505
21503847 285 18263365806447608698
21652331 79 18411136901462870657
22485316 2 8646480826276994975
23380061 81 18334294245099069562
23402655 69 18272087214568323742
449060 62 18410009940097634886
474 4 18333730225798842979
633830 44 18411135822861863255
8199 26 18339081591635277316

> <PUBCHEM_SHAPE_MULTIPOLES>
255.8
9.83
2.34
0.77
6.41
0.87
-0.02
5.52
0.39
-1.87
-0.01
0.2
0.15
-1.24

> <PUBCHEM_SHAPE_SELFOVERLAP>
498.947

> <PUBCHEM_SHAPE_VOLUME>
152.4

> <PUBCHEM_COORDINATE_TYPE>
2
5
10

$$$$
