5352484
  -OEChem-03052615073D

 40 41  0     1  0  0  0  0  0999 V2000
   -4.4555    0.0962   -0.0227 O   0  0  0  0  0  0  0  0  0  0  0  0
   -2.0875    0.4195   -0.1581 C   0  0  1  0  0  0  0  0  0  0  0  0
   -0.7492    0.2619    0.6151 C   0  0  1  0  0  0  0  0  0  0  0  0
   -0.3143   -0.7371   -0.5039 C   0  0  2  0  0  0  0  0  0  0  0  0
   -1.8212   -0.9517   -0.8059 C   0  0  0  0  0  0  0  0  0  0  0  0
    0.0113    1.5743    0.8013 C   0  0  0  0  0  0  0  0  0  0  0  0
   -3.3073    0.4314    0.7425 C   0  0  0  0  0  0  0  0  0  0  0  0
   -2.2016    1.5268   -1.1929 C   0  0  0  0  0  0  0  0  0  0  0  0
    0.4906   -1.9192   -0.0609 C   0  0  0  0  0  0  0  0  0  0  0  0
    1.4681    1.3439    1.2235 C   0  0  0  0  0  0  0  0  0  0  0  0
    1.8857   -2.0783   -0.6176 C   0  0  0  0  0  0  0  0  0  0  0  0
    2.4267    1.2875    0.0511 C   0  0  0  0  0  0  0  0  0  0  0  0
    2.9146   -1.2260    0.1330 C   0  0  0  0  0  0  0  0  0  0  0  0
   -0.0060   -2.8127    0.8103 C   0  0  0  0  0  0  0  0  0  0  0  0
    3.0246    0.1710   -0.4059 C   0  0  0  0  0  0  0  0  0  0  0  0
    2.7211    2.6124   -0.6089 C   0  0  0  0  0  0  0  0  0  0  0  0
   -0.8785   -0.2250    1.5937 H   0  0  0  0  0  0  0  0  0  0  0  0
    0.1742   -0.2300   -1.3487 H   0  0  0  0  0  0  0  0  0  0  0  0
   -2.0645   -1.0387   -1.8706 H   0  0  0  0  0  0  0  0  0  0  0  0
   -2.3037   -1.7919   -0.2941 H   0  0  0  0  0  0  0  0  0  0  0  0
   -0.4909    2.1461    1.5922 H   0  0  0  0  0  0  0  0  0  0  0  0
   -0.0192    2.2004   -0.0934 H   0  0  0  0  0  0  0  0  0  0  0  0
   -3.4611    1.4050    1.2209 H   0  0  0  0  0  0  0  0  0  0  0  0
   -3.2256   -0.3151    1.5400 H   0  0  0  0  0  0  0  0  0  0  0  0
   -3.0693    1.3829   -1.8462 H   0  0  0  0  0  0  0  0  0  0  0  0
   -2.3072    2.5086   -0.7182 H   0  0  0  0  0  0  0  0  0  0  0  0
   -1.3277    1.5690   -1.8526 H   0  0  0  0  0  0  0  0  0  0  0  0
    1.5420    0.4558    1.8587 H   0  0  0  0  0  0  0  0  0  0  0  0
    1.7827    2.1807    1.8614 H   0  0  0  0  0  0  0  0  0  0  0  0
    2.1891   -3.1304   -0.5314 H   0  0  0  0  0  0  0  0  0  0  0  0
    1.8912   -1.8593   -1.6928 H   0  0  0  0  0  0  0  0  0  0  0  0
    3.9023   -1.6902    0.0112 H   0  0  0  0  0  0  0  0  0  0  0  0
    2.7264   -1.2342    1.2120 H   0  0  0  0  0  0  0  0  0  0  0  0
   -0.9945   -2.7201    1.2448 H   0  0  0  0  0  0  0  0  0  0  0  0
    0.5838   -3.6658    1.1309 H   0  0  0  0  0  0  0  0  0  0  0  0
   -4.7339    0.8928   -0.5050 H   0  0  0  0  0  0  0  0  0  0  0  0
    3.6853    0.2606   -1.2676 H   0  0  0  0  0  0  0  0  0  0  0  0
    1.8238    3.0241   -1.0796 H   0  0  0  0  0  0  0  0  0  0  0  0
    3.4879    2.5279   -1.3866 H   0  0  0  0  0  0  0  0  0  0  0  0
    3.0875    3.3313    0.1314 H   0  0  0  0  0  0  0  0  0  0  0  0
  1  7  1  0  0  0  0
  1 36  1  0  0  0  0
  2  3  1  0  0  0  0
  2  5  1  0  0  0  0
  2  7  1  0  0  0  0
  2  8  1  0  0  0  0
  3  4  1  0  0  0  0
  3  6  1  0  0  0  0
  3 17  1  0  0  0  0
  4  5  1  0  0  0  0
  4  9  1  0  0  0  0
  4 18  1  0  0  0  0
  5 19  1  0  0  0  0
  5 20  1  0  0  0  0
  6 10  1  0  0  0  0
  6 21  1  0  0  0  0
  6 22  1  0  0  0  0
  7 23  1  0  0  0  0
  7 24  1  0  0  0  0
  8 25  1  0  0  0  0
  8 26  1  0  0  0  0
  8 27  1  0  0  0  0
  9 11  1  0  0  0  0
  9 14  2  0  0  0  0
 10 12  1  0  0  0  0
 10 28  1  0  0  0  0
 10 29  1  0  0  0  0
 11 13  1  0  0  0  0
 11 30  1  0  0  0  0
 11 31  1  0  0  0  0
 12 15  2  0  0  0  0
 12 16  1  0  0  0  0
 13 15  1  0  0  0  0
 13 32  1  0  0  0  0
 13 33  1  0  0  0  0
 14 34  1  0  0  0  0
 14 35  1  0  0  0  0
 15 37  1  0  0  0  0
 16 38  1  0  0  0  0
 16 39  1  0  0  0  0
 16 40  1  0  0  0  0
M  END
> <PUBCHEM_COMPOUND_CID>
5352484

> <PUBCHEM_CONFORMER_RMSD>
0.6

> <PUBCHEM_CONFORMER_DIVERSEORDER>
1
37
27
46
42
18
44
40
45
41
47
2
38
17
23
36
48
21
32
6
33
22
24
31
8
4
35
34
10
25
19
20
43
15
39
29
9
30
28
11
3
16
5
7
14
26
13
12

> <PUBCHEM_MMFF94_PARTIAL_CHARGES>
15
1 -0.68
10 0.14
11 0.14
12 -0.28
13 0.14
14 -0.3
15 -0.29
16 0.14
34 0.15
35 0.15
36 0.4
37 0.15
4 0.12
7 0.28
9 -0.25

> <PUBCHEM_EFFECTIVE_ROTOR_COUNT>
2.2

> <PUBCHEM_PHARMACOPHORE_FEATURES>
3
1 1 acceptor
1 1 donor
4 2 3 4 5 rings

> <PUBCHEM_HEAVY_ATOM_COUNT>
16

> <PUBCHEM_ATOM_DEF_STEREO_COUNT>
0

> <PUBCHEM_ATOM_UDEF_STEREO_COUNT>
3

> <PUBCHEM_BOND_DEF_STEREO_COUNT>
1

> <PUBCHEM_BOND_UDEF_STEREO_COUNT>
0

> <PUBCHEM_ISOTOPIC_ATOM_COUNT>
0

> <PUBCHEM_COMPONENT_COUNT>
1

> <PUBCHEM_CACTVS_TAUTO_COUNT>
1

> <PUBCHEM_CONFORMER_ID>
0051AC2400000001

> <PUBCHEM_MMFF94_ENERGY>
36.3365

> <PUBCHEM_FEATURE_SELFOVERLAP>
15.223

> <PUBCHEM_SHAPE_FINGERPRINT>
104564 63 17697320616541805808
10967382 1 18412826888898338568
10980938 120 18272371953651477603
11471102 20 18341047424163144709
12716301 132 17694770123438524048
13140716 1 18341604962484394050
13380535 21 18342178916281099399
13897977 150 18411981402984677405
14251711 518 17621043062321588994
14251717 144 18413387614301533979
15219456 202 18262515893087440093
15775835 57 18343023332368050380
16945 1 18059566936967269354
17775402 16 17978220565602837582
18186145 218 18412826884587605708
20511035 2 18199177572439579610
20645476 183 18192437582908678524
20645477 70 18270676472862920815
21501502 16 18340763870201099999
21524375 3 18339918324505926438
22854114 111 18410575067504347789
2334 1 18269548519365669826
23419403 2 15749432366350953976
23557571 272 16660361442531449719
238 59 18048560859875137037
25 1 18413389851826390996
257057 1 17471847005312658770
2748010 2 18126572460160008978
2897 32 18341334388371836192
3071541 250 18057330487192769702
3286 77 17749669571788797402
3323516 105 18341897411229068267
353137 74 18198340654589827464
57483677 104 18343575244244867546
63268167 104 18271525303975830538
81228 2 17545585116847481555
81539 233 18335415781661803437
8272917 22 18340779152216718817
9999458 23 18334298651809147655

> <PUBCHEM_SHAPE_MULTIPOLES>
323.4
5.39
2.8
1.06
2.9
0.73
0.04
-1.64
-0.47
-1.85
0.01
0.14
-0.2
0.1

> <PUBCHEM_SHAPE_SELFOVERLAP>
656.345

> <PUBCHEM_SHAPE_VOLUME>
189.4

> <PUBCHEM_COORDINATE_TYPE>
2
5
10

$$$$
