5352452
  -OEChem-03052615063D

 30 29  0     1  0  0  0  0  0999 V2000
   -2.0114    1.5143    0.1096 O   0  0  0  0  0  0  0  0  0  0  0  0
    3.6390    1.4945    0.8127 O   0  0  0  0  0  0  0  0  0  0  0  0
   -2.1760    0.2114   -0.4551 C   0  0  2  0  0  0  0  0  0  0  0  0
   -0.7795   -0.3798   -0.7540 C   0  0  0  0  0  0  0  0  0  0  0  0
    0.1029   -0.5575    0.4901 C   0  0  0  0  0  0  0  0  0  0  0  0
   -2.9638    0.3734   -1.7611 C   0  0  0  0  0  0  0  0  0  0  0  0
    1.4505   -1.1136    0.1218 C   0  0  0  0  0  0  0  0  0  0  0  0
   -2.9624   -0.6803    0.4825 C   0  0  0  0  0  0  0  0  0  0  0  0
    2.5804   -0.4259   -0.1319 C   0  0  0  0  0  0  0  0  0  0  0  0
    2.6832    1.0752   -0.1522 C   0  0  0  0  0  0  0  0  0  0  0  0
    3.8561   -1.1573   -0.4608 C   0  0  0  0  0  0  0  0  0  0  0  0
   -3.4190   -0.3544    1.6982 C   0  0  0  0  0  0  0  0  0  0  0  0
   -0.8878   -1.3476   -1.2627 H   0  0  0  0  0  0  0  0  0  0  0  0
   -0.2561    0.2870   -1.4533 H   0  0  0  0  0  0  0  0  0  0  0  0
    0.2050    0.3894    1.0302 H   0  0  0  0  0  0  0  0  0  0  0  0
   -0.3632   -1.2557    1.1953 H   0  0  0  0  0  0  0  0  0  0  0  0
   -3.9399    0.8375   -1.5754 H   0  0  0  0  0  0  0  0  0  0  0  0
   -2.4358    1.0372   -2.4558 H   0  0  0  0  0  0  0  0  0  0  0  0
   -3.1278   -0.5867   -2.2625 H   0  0  0  0  0  0  0  0  0  0  0  0
    1.4882   -2.2012    0.0767 H   0  0  0  0  0  0  0  0  0  0  0  0
   -3.1676   -1.6888    0.1268 H   0  0  0  0  0  0  0  0  0  0  0  0
   -1.5005    2.0530   -0.5184 H   0  0  0  0  0  0  0  0  0  0  0  0
    3.0245    1.4117   -1.1368 H   0  0  0  0  0  0  0  0  0  0  0  0
    1.7400    1.5866    0.0537 H   0  0  0  0  0  0  0  0  0  0  0  0
    3.7158   -2.2429   -0.4962 H   0  0  0  0  0  0  0  0  0  0  0  0
    4.6238   -0.9490    0.2912 H   0  0  0  0  0  0  0  0  0  0  0  0
    4.2320   -0.8422   -1.4398 H   0  0  0  0  0  0  0  0  0  0  0  0
   -3.9711   -1.0804    2.2856 H   0  0  0  0  0  0  0  0  0  0  0  0
   -3.2572    0.6247    2.1336 H   0  0  0  0  0  0  0  0  0  0  0  0
    3.3077    1.2310    1.6884 H   0  0  0  0  0  0  0  0  0  0  0  0
  1  3  1  0  0  0  0
  1 22  1  0  0  0  0
  2 10  1  0  0  0  0
  2 30  1  0  0  0  0
  3  4  1  0  0  0  0
  3  6  1  0  0  0  0
  3  8  1  0  0  0  0
  4  5  1  0  0  0  0
  4 13  1  0  0  0  0
  4 14  1  0  0  0  0
  5  7  1  0  0  0  0
  5 15  1  0  0  0  0
  5 16  1  0  0  0  0
  6 17  1  0  0  0  0
  6 18  1  0  0  0  0
  6 19  1  0  0  0  0
  7  9  2  0  0  0  0
  7 20  1  0  0  0  0
  8 12  2  0  0  0  0
  8 21  1  0  0  0  0
  9 10  1  0  0  0  0
  9 11  1  0  0  0  0
 10 23  1  0  0  0  0
 10 24  1  0  0  0  0
 11 25  1  0  0  0  0
 11 26  1  0  0  0  0
 11 27  1  0  0  0  0
 12 28  1  0  0  0  0
 12 29  1  0  0  0  0
M  END
> <PUBCHEM_COMPOUND_CID>
5352452

> <PUBCHEM_CONFORMER_RMSD>
0.6

> <PUBCHEM_CONFORMER_DIVERSEORDER>
1
132
136
52
59
146
45
48
25
130
51
128
127
80
64
114
123
46
115
78
139
36
121
85
19
95
152
58
84
110
79
14
150
76
137
83
38
82
32
118
106
49
120
124
65
3
74
27
86
153
34
72
102
70
17
63
122
35
99
39
18
135
43
100
107
47
94
9
40
30
4
91
145
21
57
93
142
155
133
96
22
12
143
77
10
109
151
20
125
24
101
144
50
15
108
62
116
29
44
113
75
8
134
148
13
81
61
41
105
104
26
42
37
23
88
66
16
69
140
138
131
98
53
87
73
7
149
60
126
154
117
33
67
119
56
90
129
141
11
97
55
2
54
103
5
71
68
147
112
31
89
28
6
111
92

> <PUBCHEM_MMFF94_PARTIAL_CHARGES>
16
1 -0.68
10 0.42
11 0.14
12 -0.3
2 -0.68
20 0.15
21 0.15
22 0.4
28 0.15
29 0.15
3 0.42
30 0.4
5 0.14
7 -0.29
8 -0.29
9 -0.28

> <PUBCHEM_EFFECTIVE_ROTOR_COUNT>
5

> <PUBCHEM_PHARMACOPHORE_FEATURES>
6
1 1 acceptor
1 1 donor
1 11 hydrophobe
1 12 hydrophobe
1 2 acceptor
1 2 donor

> <PUBCHEM_HEAVY_ATOM_COUNT>
12

> <PUBCHEM_ATOM_DEF_STEREO_COUNT>
0

> <PUBCHEM_ATOM_UDEF_STEREO_COUNT>
1

> <PUBCHEM_BOND_DEF_STEREO_COUNT>
1

> <PUBCHEM_BOND_UDEF_STEREO_COUNT>
0

> <PUBCHEM_ISOTOPIC_ATOM_COUNT>
0

> <PUBCHEM_COMPONENT_COUNT>
1

> <PUBCHEM_CACTVS_TAUTO_COUNT>
1

> <PUBCHEM_CONFORMER_ID>
0051AC0400000001

> <PUBCHEM_MMFF94_ENERGY>
15.8471

> <PUBCHEM_FEATURE_SELFOVERLAP>
30.446

> <PUBCHEM_SHAPE_FINGERPRINT>
10857977 72 17240486922397499287
11132069 177 18114467876219893115
12500047 106 16878496826630161551
12916754 54 18130784572846672567
12932764 1 18259983768947528186
13296908 3 18187365423947415814
14250199 8 18342451547809514524
14577589 140 11671779360351181757
15775835 57 17775007924614287968
17844478 74 18260836998565573441
18186145 218 18343867718954777878
19026448 5 16917066672361793742
19422 9 17203327822929884335
20279233 1 17968087629555163015
20645477 70 18341321202569439678
20711983 171 16415204480925298697
20715346 28 18113616785299901734
21061003 4 18261123988649680721
230 275 18334568062602583704
23380061 50 17749380447670160709
23402539 116 15051731967868091234
23557571 272 17531252708138898079
23598291 2 17275386499658124180
3248919 1 18339350868968229275
57812782 119 17458623440688967031
6049 1 18260274009925746134
81228 2 17755866668521113594

> <PUBCHEM_SHAPE_MULTIPOLES>
235.22
7.41
1.35
1.27
2.75
0.1
0.16
-0.14
0.71
-0.6
0.09
0
0.19
1.46

> <PUBCHEM_SHAPE_SELFOVERLAP>
440.872

> <PUBCHEM_SHAPE_VOLUME>
147.4

> <PUBCHEM_COORDINATE_TYPE>
2
5
10

$$$$
