5352825
  -OEChem-03052615043D

 22 21  0     1  0  0  0  0  0999 V2000
    1.9251    1.3528   -0.0242 O   0  0  0  0  0  0  0  0  0  0  0  0
    2.0661   -0.0097    0.3743 C   0  0  1  0  0  0  0  0  0  0  0  0
    0.8976   -0.8376   -0.1725 C   0  0  0  0  0  0  0  0  0  0  0  0
   -0.4284   -0.3372    0.3300 C   0  0  0  0  0  0  0  0  0  0  0  0
    3.3944   -0.5082   -0.1791 C   0  0  0  0  0  0  0  0  0  0  0  0
   -1.3941    0.1472   -0.4649 C   0  0  0  0  0  0  0  0  0  0  0  0
   -2.7132    0.6530    0.0389 C   0  0  0  0  0  0  0  0  0  0  0  0
   -3.7475   -0.4603    0.0975 C   0  0  0  0  0  0  0  0  0  0  0  0
    2.0840   -0.0386    1.4692 H   0  0  0  0  0  0  0  0  0  0  0  0
    1.0120   -1.8860    0.1269 H   0  0  0  0  0  0  0  0  0  0  0  0
    0.9097   -0.8126   -1.2698 H   0  0  0  0  0  0  0  0  0  0  0  0
   -0.5924   -0.3773    1.4041 H   0  0  0  0  0  0  0  0  0  0  0  0
    4.2187    0.1091    0.1941 H   0  0  0  0  0  0  0  0  0  0  0  0
    3.5791   -1.5471    0.1105 H   0  0  0  0  0  0  0  0  0  0  0  0
    3.4206   -0.4393   -1.2723 H   0  0  0  0  0  0  0  0  0  0  0  0
   -1.2389    0.1772   -1.5404 H   0  0  0  0  0  0  0  0  0  0  0  0
   -3.0632    1.4566   -0.6188 H   0  0  0  0  0  0  0  0  0  0  0  0
   -2.5967    1.0936    1.0362 H   0  0  0  0  0  0  0  0  0  0  0  0
   -3.4379   -1.2564    0.7831 H   0  0  0  0  0  0  0  0  0  0  0  0
   -4.7061   -0.0663    0.4499 H   0  0  0  0  0  0  0  0  0  0  0  0
   -3.9078   -0.9044   -0.8909 H   0  0  0  0  0  0  0  0  0  0  0  0
    1.8844    1.3793   -0.9955 H   0  0  0  0  0  0  0  0  0  0  0  0
  1  2  1  0  0  0  0
  1 22  1  0  0  0  0
  2  3  1  0  0  0  0
  2  5  1  0  0  0  0
  2  9  1  0  0  0  0
  3  4  1  0  0  0  0
  3 10  1  0  0  0  0
  3 11  1  0  0  0  0
  4  6  2  0  0  0  0
  4 12  1  0  0  0  0
  5 13  1  0  0  0  0
  5 14  1  0  0  0  0
  5 15  1  0  0  0  0
  6  7  1  0  0  0  0
  6 16  1  0  0  0  0
  7  8  1  0  0  0  0
  7 17  1  0  0  0  0
  7 18  1  0  0  0  0
  8 19  1  0  0  0  0
  8 20  1  0  0  0  0
  8 21  1  0  0  0  0
M  END
> <PUBCHEM_COMPOUND_CID>
5352825

> <PUBCHEM_CONFORMER_RMSD>
0.6

> <PUBCHEM_CONFORMER_DIVERSEORDER>
2
3
14
16
21
18
8
10
17
4
12
19
6
11
15
13
5
9
7
20
1

> <PUBCHEM_MMFF94_PARTIAL_CHARGES>
9
1 -0.68
12 0.15
16 0.15
2 0.28
22 0.4
3 0.14
4 -0.29
6 -0.29
7 0.14

> <PUBCHEM_EFFECTIVE_ROTOR_COUNT>
3

> <PUBCHEM_PHARMACOPHORE_FEATURES>
3
1 1 acceptor
1 1 donor
1 8 hydrophobe

> <PUBCHEM_HEAVY_ATOM_COUNT>
8

> <PUBCHEM_ATOM_DEF_STEREO_COUNT>
0

> <PUBCHEM_ATOM_UDEF_STEREO_COUNT>
1

> <PUBCHEM_BOND_DEF_STEREO_COUNT>
1

> <PUBCHEM_BOND_UDEF_STEREO_COUNT>
0

> <PUBCHEM_ISOTOPIC_ATOM_COUNT>
0

> <PUBCHEM_COMPONENT_COUNT>
1

> <PUBCHEM_CACTVS_TAUTO_COUNT>
1

> <PUBCHEM_CONFORMER_ID>
0051AD7900000002

> <PUBCHEM_MMFF94_ENERGY>
2.242

> <PUBCHEM_FEATURE_SELFOVERLAP>
15.223

> <PUBCHEM_SHAPE_FINGERPRINT>
10857977 72 17312823801221442417
12932764 1 17676195871209041107
14325111 11 18410855468913288211
14390081 3 18410570678332763785
190213 19 17418093213354570931
21293036 1 18409737257346052246
3248919 1 17989203720649931159
5460574 1 10375867485222444427

> <PUBCHEM_SHAPE_MULTIPOLES>
158.77
6.15
0.99
0.67
1.67
0.18
0
-0.37
-0.01
-0.24
0.02
0.01
-0.02
0.08

> <PUBCHEM_SHAPE_SELFOVERLAP>
282.805

> <PUBCHEM_SHAPE_VOLUME>
103.8

> <PUBCHEM_COORDINATE_TYPE>
2
5
10

$$$$
