5353110
  -OEChem-03052615033D

 45 44  0     0  0  0  0  0  0999 V2000
   -2.7622   -0.8322   -0.2744 O   0  0  0  0  0  0  0  0  0  0  0  0
   -5.9316    0.7424    0.2118 O   0  0  0  0  0  0  0  0  0  0  0  0
   -4.6602   -1.5394    0.8329 O   0  0  0  0  0  0  0  0  0  0  0  0
   -6.1034    2.8486   -0.7219 O   0  0  0  0  0  0  0  0  0  0  0  0
    4.9188    0.1770    0.1513 C   0  0  0  0  0  0  0  0  0  0  0  0
    6.3829    0.1825   -0.2985 C   0  0  0  0  0  0  0  0  0  0  0  0
    4.0720   -1.0050   -0.3324 C   0  0  0  0  0  0  0  0  0  0  0  0
    7.1891    1.3562    0.2607 C   0  0  0  0  0  0  0  0  0  0  0  0
    2.6358   -0.9839    0.2011 C   0  0  0  0  0  0  0  0  0  0  0  0
    8.6604    1.2602   -0.1448 C   0  0  0  0  0  0  0  0  0  0  0  0
    1.7734   -2.1213   -0.3578 C   0  0  0  0  0  0  0  0  0  0  0  0
    9.4748    2.4039    0.4385 C   0  0  0  0  0  0  0  0  0  0  0  0
    0.3860   -2.1437    0.2160 C   0  0  0  0  0  0  0  0  0  0  0  0
   -0.7276   -2.0203   -0.5209 C   0  0  0  0  0  0  0  0  0  0  0  0
   -2.1074   -2.0505    0.0503 C   0  0  0  0  0  0  0  0  0  0  0  0
   -4.0476   -0.7038    0.1820 C   0  0  0  0  0  0  0  0  0  0  0  0
   -4.5975    0.6323   -0.2428 C   0  0  0  0  0  0  0  0  0  0  0  0
   -6.5792    1.9109   -0.0964 C   0  0  0  0  0  0  0  0  0  0  0  0
   -7.9763    1.8862    0.4454 C   0  0  0  0  0  0  0  0  0  0  0  0
    4.4455    1.1091   -0.1829 H   0  0  0  0  0  0  0  0  0  0  0  0
    4.8926    0.1951    1.2485 H   0  0  0  0  0  0  0  0  0  0  0  0
    6.4211    0.2028   -1.3945 H   0  0  0  0  0  0  0  0  0  0  0  0
    6.8495   -0.7592    0.0164 H   0  0  0  0  0  0  0  0  0  0  0  0
    4.5544   -1.9418   -0.0278 H   0  0  0  0  0  0  0  0  0  0  0  0
    4.0528   -1.0005   -1.4290 H   0  0  0  0  0  0  0  0  0  0  0  0
    6.7632    2.2998   -0.1008 H   0  0  0  0  0  0  0  0  0  0  0  0
    7.1110    1.3643    1.3547 H   0  0  0  0  0  0  0  0  0  0  0  0
    2.1709   -0.0224   -0.0514 H   0  0  0  0  0  0  0  0  0  0  0  0
    2.6605   -1.0438    1.2966 H   0  0  0  0  0  0  0  0  0  0  0  0
    8.7467    1.2756   -1.2375 H   0  0  0  0  0  0  0  0  0  0  0  0
    9.0816    0.3089    0.2007 H   0  0  0  0  0  0  0  0  0  0  0  0
    2.2501   -3.0823   -0.1285 H   0  0  0  0  0  0  0  0  0  0  0  0
    1.7384   -2.0434   -1.4515 H   0  0  0  0  0  0  0  0  0  0  0  0
   10.5227    2.3166    0.1347 H   0  0  0  0  0  0  0  0  0  0  0  0
    9.0991    3.3708    0.0889 H   0  0  0  0  0  0  0  0  0  0  0  0
    9.4365    2.3951    1.5324 H   0  0  0  0  0  0  0  0  0  0  0  0
    0.3042   -2.2776    1.2918 H   0  0  0  0  0  0  0  0  0  0  0  0
   -0.6454   -1.8944   -1.5976 H   0  0  0  0  0  0  0  0  0  0  0  0
   -2.6562   -2.8898   -0.3925 H   0  0  0  0  0  0  0  0  0  0  0  0
   -2.0858   -2.1766    1.1392 H   0  0  0  0  0  0  0  0  0  0  0  0
   -3.9855    1.4208    0.2075 H   0  0  0  0  0  0  0  0  0  0  0  0
   -4.5736    0.6885   -1.3363 H   0  0  0  0  0  0  0  0  0  0  0  0
   -8.5329    1.0601   -0.0042 H   0  0  0  0  0  0  0  0  0  0  0  0
   -8.4799    2.8240    0.1941 H   0  0  0  0  0  0  0  0  0  0  0  0
   -7.9496    1.7858    1.5333 H   0  0  0  0  0  0  0  0  0  0  0  0
  1 15  1  0  0  0  0
  1 16  1  0  0  0  0
  2 17  1  0  0  0  0
  2 18  1  0  0  0  0
  3 16  2  0  0  0  0
  4 18  2  0  0  0  0
  5  6  1  0  0  0  0
  5  7  1  0  0  0  0
  5 20  1  0  0  0  0
  5 21  1  0  0  0  0
  6  8  1  0  0  0  0
  6 22  1  0  0  0  0
  6 23  1  0  0  0  0
  7  9  1  0  0  0  0
  7 24  1  0  0  0  0
  7 25  1  0  0  0  0
  8 10  1  0  0  0  0
  8 26  1  0  0  0  0
  8 27  1  0  0  0  0
  9 11  1  0  0  0  0
  9 28  1  0  0  0  0
  9 29  1  0  0  0  0
 10 12  1  0  0  0  0
 10 30  1  0  0  0  0
 10 31  1  0  0  0  0
 11 13  1  0  0  0  0
 11 32  1  0  0  0  0
 11 33  1  0  0  0  0
 12 34  1  0  0  0  0
 12 35  1  0  0  0  0
 12 36  1  0  0  0  0
 13 14  2  0  0  0  0
 13 37  1  0  0  0  0
 14 15  1  0  0  0  0
 14 38  1  0  0  0  0
 15 39  1  0  0  0  0
 15 40  1  0  0  0  0
 16 17  1  0  0  0  0
 17 41  1  0  0  0  0
 17 42  1  0  0  0  0
 18 19  1  0  0  0  0
 19 43  1  0  0  0  0
 19 44  1  0  0  0  0
 19 45  1  0  0  0  0
M  END
> <PUBCHEM_COMPOUND_CID>
5353110

> <PUBCHEM_CONFORMER_RMSD>
1.2

> <PUBCHEM_CONFORMER_DIVERSEORDER>
2
29
115
44
80
30
112
81
74
89
121
18
45
7
59
23
99
76
75
3
114
33
50
96
91
70
56
6
119
98
124
103
13
64
10
47
21
69
82
20
109
92
39
78
108
60
79
19
25
62
51
42
68
90
125
65
38
14
27
61
67
101
118
53
16
37
4
117
123
84
110
88
8
1
120
36
63
95
43
97
73
9
94
83
31
15
66
41
22
86
71
85
17
105
11
87
49
52
26
102
28
100
34
54
35
46
104
72
5
48
106
57
77
122
116
55
113
58
40
32
12
93
24
107
111

> <PUBCHEM_MMFF94_PARTIAL_CHARGES>
14
1 -0.43
11 0.14
13 -0.29
14 -0.29
15 0.42
16 0.66
17 0.34
18 0.66
19 0.06
2 -0.43
3 -0.57
37 0.15
38 0.15
4 -0.57

> <PUBCHEM_EFFECTIVE_ROTOR_COUNT>
13

> <PUBCHEM_PHARMACOPHORE_FEATURES>
3
1 12 hydrophobe
1 3 acceptor
1 4 acceptor

> <PUBCHEM_HEAVY_ATOM_COUNT>
19

> <PUBCHEM_ATOM_DEF_STEREO_COUNT>
0

> <PUBCHEM_ATOM_UDEF_STEREO_COUNT>
0

> <PUBCHEM_BOND_DEF_STEREO_COUNT>
1

> <PUBCHEM_BOND_UDEF_STEREO_COUNT>
0

> <PUBCHEM_ISOTOPIC_ATOM_COUNT>
0

> <PUBCHEM_COMPONENT_COUNT>
1

> <PUBCHEM_CACTVS_TAUTO_COUNT>
1

> <PUBCHEM_CONFORMER_ID>
0051AE9600000002

> <PUBCHEM_MMFF94_ENERGY>
5.8217

> <PUBCHEM_FEATURE_SELFOVERLAP>
15.223

> <PUBCHEM_SHAPE_FINGERPRINT>
10 15 18113904827914545803
11409948 8 18261969501150648633
13668630 136 9943813274924005898
14123256 34 8862940576292817102
14251757 52 18407758127979075826
14598715 104 18271235114885101136
14729087 3 18341894125990458986
14919807 6 18341346526740570150
15778101 99 18410294726420764886
1768 4 18342185449474950985
2026 5 8790886272364108897
20281389 69 18188211988288427143
20526848 3 18410857646314137694
20621476 66 18408042935845256678
21095123 293 18113906000784139572
21304304 249 9079105666257558113
21307412 95 12319440101225487461
21585482 111 18261952947134120092
22288116 15 17275091873808279311
23524908 199 17703517593779448518
270888 7 18410854343463519391
406291 66 8718824284510872360
437795 150 13829838167064568085
465052 167 10809348828061743330
5283384 27 18187920643645442045
59682541 52 15841832231557839174
6327066 14 18342737411973932335
636775 72 18409449180868145981
9980921 7 18186794791167986285

> <PUBCHEM_SHAPE_MULTIPOLES>
367.53
30.2
3.12
0.72
28.21
0.59
0
35.09
2.02
-2.08
-0.11
-0.16
0.01
1.13

> <PUBCHEM_SHAPE_SELFOVERLAP>
685.639

> <PUBCHEM_SHAPE_VOLUME>
228.6

> <PUBCHEM_COORDINATE_TYPE>
2
5
10

$$$$
