5353000
  -OEChem-03052615023D

 43 43  0     0  0  0  0  0  0999 V2000
    0.9408   -3.2491    0.4579 O   0  0  0  0  0  0  0  0  0  0  0  0
    1.7985   -1.5807   -0.9150 N   0  0  0  0  0  0  0  0  0  0  0  0
    3.7797   -1.0758    0.4760 C   0  0  0  0  0  0  0  0  0  0  0  0
    3.2015   -1.8567   -0.7015 C   0  0  0  0  0  0  0  0  0  0  0  0
    3.6477    0.4185    0.3129 C   0  0  0  0  0  0  0  0  0  0  0  0
   -3.0575   -1.9387   -0.5671 C   0  0  0  0  0  0  0  0  0  0  0  0
    4.6626    1.1266   -0.3118 C   0  0  0  0  0  0  0  0  0  0  0  0
    2.5136    1.0572    0.7902 C   0  0  0  0  0  0  0  0  0  0  0  0
   -3.8990   -1.5780    0.6624 C   0  0  0  0  0  0  0  0  0  0  0  0
    0.7858   -2.3068   -0.3118 C   0  0  0  0  0  0  0  0  0  0  0  0
   -1.6661   -2.3866   -0.2146 C   0  0  0  0  0  0  0  0  0  0  0  0
   -0.5609   -1.8083   -0.7046 C   0  0  0  0  0  0  0  0  0  0  0  0
    4.5406    2.5079   -0.4628 C   0  0  0  0  0  0  0  0  0  0  0  0
    2.3916    2.4385    0.6389 C   0  0  0  0  0  0  0  0  0  0  0  0
    3.4052    3.1637    0.0125 C   0  0  0  0  0  0  0  0  0  0  0  0
   -3.3608   -0.3887    1.4097 C   0  0  0  0  0  0  0  0  0  0  0  0
   -3.6827    0.8809    1.1169 C   0  0  0  0  0  0  0  0  0  0  0  0
   -4.5861    1.2335    0.0450 C   0  0  0  0  0  0  0  0  0  0  0  0
   -4.9628    2.4695   -0.3173 C   0  0  0  0  0  0  0  0  0  0  0  0
   -5.8916    2.8731   -1.4160 C   0  0  0  0  0  0  0  0  0  0  0  0
    4.8373   -1.3395    0.6039 H   0  0  0  0  0  0  0  0  0  0  0  0
    3.2838   -1.3817    1.4068 H   0  0  0  0  0  0  0  0  0  0  0  0
    3.3319   -2.9309   -0.5308 H   0  0  0  0  0  0  0  0  0  0  0  0
    3.7218   -1.5972   -1.6301 H   0  0  0  0  0  0  0  0  0  0  0  0
    1.5659   -0.8125   -1.5380 H   0  0  0  0  0  0  0  0  0  0  0  0
   -3.0330   -1.0976   -1.2706 H   0  0  0  0  0  0  0  0  0  0  0  0
   -3.5503   -2.7666   -1.0918 H   0  0  0  0  0  0  0  0  0  0  0  0
   -4.9480   -1.4457    0.3764 H   0  0  0  0  0  0  0  0  0  0  0  0
   -3.9117   -2.4283    1.3579 H   0  0  0  0  0  0  0  0  0  0  0  0
    5.5496    0.6244   -0.6871 H   0  0  0  0  0  0  0  0  0  0  0  0
    1.7192    0.5035    1.2823 H   0  0  0  0  0  0  0  0  0  0  0  0
   -1.5913   -3.2338    0.4627 H   0  0  0  0  0  0  0  0  0  0  0  0
   -0.6275   -0.9670   -1.3865 H   0  0  0  0  0  0  0  0  0  0  0  0
    5.3293    3.0726   -0.9512 H   0  0  0  0  0  0  0  0  0  0  0  0
    1.5077    2.9494    1.0093 H   0  0  0  0  0  0  0  0  0  0  0  0
    3.3100    4.2392   -0.1053 H   0  0  0  0  0  0  0  0  0  0  0  0
   -2.6645   -0.5789    2.2223 H   0  0  0  0  0  0  0  0  0  0  0  0
   -3.2486    1.6874    1.7007 H   0  0  0  0  0  0  0  0  0  0  0  0
   -5.0067    0.4294   -0.5514 H   0  0  0  0  0  0  0  0  0  0  0  0
   -4.5576    3.3071    0.2498 H   0  0  0  0  0  0  0  0  0  0  0  0
   -6.2787    2.0044   -1.9576 H   0  0  0  0  0  0  0  0  0  0  0  0
   -6.7403    3.4272   -1.0042 H   0  0  0  0  0  0  0  0  0  0  0  0
   -5.3696    3.5177   -2.1295 H   0  0  0  0  0  0  0  0  0  0  0  0
  1 10  2  0  0  0  0
  2  4  1  0  0  0  0
  2 10  1  0  0  0  0
  2 25  1  0  0  0  0
  3  4  1  0  0  0  0
  3  5  1  0  0  0  0
  3 21  1  0  0  0  0
  3 22  1  0  0  0  0
  4 23  1  0  0  0  0
  4 24  1  0  0  0  0
  5  7  2  0  0  0  0
  5  8  1  0  0  0  0
  6  9  1  0  0  0  0
  6 11  1  0  0  0  0
  6 26  1  0  0  0  0
  6 27  1  0  0  0  0
  7 13  1  0  0  0  0
  7 30  1  0  0  0  0
  8 14  2  0  0  0  0
  8 31  1  0  0  0  0
  9 16  1  0  0  0  0
  9 28  1  0  0  0  0
  9 29  1  0  0  0  0
 10 12  1  0  0  0  0
 11 12  2  0  0  0  0
 11 32  1  0  0  0  0
 12 33  1  0  0  0  0
 13 15  2  0  0  0  0
 13 34  1  0  0  0  0
 14 15  1  0  0  0  0
 14 35  1  0  0  0  0
 15 36  1  0  0  0  0
 16 17  2  0  0  0  0
 16 37  1  0  0  0  0
 17 18  1  0  0  0  0
 17 38  1  0  0  0  0
 18 19  2  0  0  0  0
 18 39  1  0  0  0  0
 19 20  1  0  0  0  0
 19 40  1  0  0  0  0
 20 41  1  0  0  0  0
 20 42  1  0  0  0  0
 20 43  1  0  0  0  0
M  END
> <PUBCHEM_COMPOUND_CID>
5353000

> <PUBCHEM_CONFORMER_RMSD>
1

> <PUBCHEM_CONFORMER_DIVERSEORDER>
1
164
45
27
138
76
106
162
10
42
77
49
38
155
151
186
93
85
154
119
148
29
180
60
184
55
6
170
144
80
13
16
196
103
50
128
167
177
14
57
62
125
100
47
73
71
109
174
25
2
169
53
159
129
126
82
32
20
131
105
37
92
74
97
94
83
79
66
146
22
61
72
24
153
194
88
200
147
90
21
124
69
40
202
91
89
31
133
117
67
28
115
120
87
18
30
192
206
121
152
98
181
75
205
52
136
41
101
110
104
172
54
11
203
193
165
178
114
182
188
113
70
26
63
99
56
195
122
130
187
108
107
185
86
179
65
17
112
111
102
5
48
160
19
96
46
150
163
58
39
33
118
12
64
171
15
204
51
84
143
199
9
156
43
8
139
145
134
78
140
59
166
3
4
132
116
161
190
23
189
158
7
36
157
81
175
173
68
176
142
198
95
135
168
34
197
183
35
137
149
44
127
191
141
201
123

> <PUBCHEM_MMFF94_PARTIAL_CHARGES>
32
1 -0.57
10 0.62
11 -0.29
12 -0.14
13 -0.15
14 -0.15
15 -0.15
16 -0.29
17 -0.15
18 -0.15
19 -0.29
2 -0.73
20 0.14
25 0.37
3 0.14
30 0.15
31 0.15
32 0.15
33 0.15
34 0.15
35 0.15
36 0.15
37 0.15
38 0.15
39 0.15
4 0.3
40 0.15
5 -0.14
6 0.14
7 -0.15
8 -0.15
9 0.14

> <PUBCHEM_EFFECTIVE_ROTOR_COUNT>
9

> <PUBCHEM_PHARMACOPHORE_FEATURES>
5
1 1 acceptor
1 2 donor
1 20 hydrophobe
4 6 9 11 16 hydrophobe
6 5 7 8 13 14 15 rings

> <PUBCHEM_HEAVY_ATOM_COUNT>
20

> <PUBCHEM_ATOM_DEF_STEREO_COUNT>
0

> <PUBCHEM_ATOM_UDEF_STEREO_COUNT>
0

> <PUBCHEM_BOND_DEF_STEREO_COUNT>
3

> <PUBCHEM_BOND_UDEF_STEREO_COUNT>
0

> <PUBCHEM_ISOTOPIC_ATOM_COUNT>
0

> <PUBCHEM_COMPONENT_COUNT>
1

> <PUBCHEM_CACTVS_TAUTO_COUNT>
2

> <PUBCHEM_CONFORMER_ID>
0051AE2800000001

> <PUBCHEM_MMFF94_ENERGY>
29.3877

> <PUBCHEM_FEATURE_SELFOVERLAP>
25.371

> <PUBCHEM_SHAPE_FINGERPRINT>
10670039 82 18053673748190485100
12100795 323 18335133202747285493
12769317 202 18342737386208902946
12978246 48 18342742948233866561
13583140 156 18189067416867159203
14251764 38 18410569613312697877
14251764 75 18271540697566479041
14790565 3 17976826703330690412
14848178 96 18341612594609422321
14957384 54 18335976493784575403
15003188 100 18269269080757222397
15475509 84 17466780481554541810
15848702 68 18339357440431852394
17834072 32 18341052930569720139
17868525 174 18264482889330236610
20398071 114 18269552896037720985
20621476 13 18340489962956336065
21279426 13 18272102591094413398
21315763 76 18271519784932305889
21315764 268 18408606946555548559
21388113 180 18335981978669133741
21475661 188 18336263453381606251
21860390 5 17916028958104863206
21864079 5 18341049708980627898
2838139 119 18190452763184593645
325973 47 18339924805728465169
474 4 18341051933953334234
5312510 48 18123185702654920285

> <PUBCHEM_SHAPE_MULTIPOLES>
400.74
12.95
4.52
1.11
8.57
0.71
-0.05
11.71
1.41
0.38
0.9
0.94
0.17
1.44

> <PUBCHEM_SHAPE_SELFOVERLAP>
799.684

> <PUBCHEM_SHAPE_VOLUME>
234.8

> <PUBCHEM_COORDINATE_TYPE>
2
5
10

$$$$
