5358363
  -OEChem-03052615053D

 27 26  0     0  0  0  0  0  0999 V2000
    2.6831    0.4727   -0.0637 O   0  0  0  0  0  0  0  0  0  0  0  0
    1.8281   -1.6291    0.3716 O   0  0  0  0  0  0  0  0  0  0  0  0
   -3.0630   -0.1152    0.2237 C   0  0  0  0  0  0  0  0  0  0  0  0
   -4.3997    0.4897   -0.2064 C   0  0  0  0  0  0  0  0  0  0  0  0
   -2.0140    0.0132   -0.8828 C   0  0  0  0  0  0  0  0  0  0  0  0
   -5.4349    0.3992    0.9034 C   0  0  0  0  0  0  0  0  0  0  0  0
   -0.6919   -0.5515   -0.4479 C   0  0  0  0  0  0  0  0  0  0  0  0
    0.4418    0.1619   -0.4287 C   0  0  0  0  0  0  0  0  0  0  0  0
    1.7049   -0.4696    0.0100 C   0  0  0  0  0  0  0  0  0  0  0  0
    3.9887    0.0366    0.3293 C   0  0  0  0  0  0  0  0  0  0  0  0
    4.9570    1.1921    0.1916 C   0  0  0  0  0  0  0  0  0  0  0  0
   -3.2048   -1.1720    0.4833 H   0  0  0  0  0  0  0  0  0  0  0  0
   -2.7076    0.3921    1.1298 H   0  0  0  0  0  0  0  0  0  0  0  0
   -4.7755   -0.0317   -1.0944 H   0  0  0  0  0  0  0  0  0  0  0  0
   -4.2617    1.5418   -0.4817 H   0  0  0  0  0  0  0  0  0  0  0  0
   -1.9100    1.0658   -1.1734 H   0  0  0  0  0  0  0  0  0  0  0  0
   -2.3489   -0.5322   -1.7733 H   0  0  0  0  0  0  0  0  0  0  0  0
   -5.6200   -0.6429    1.1831 H   0  0  0  0  0  0  0  0  0  0  0  0
   -5.1029    0.9408    1.7950 H   0  0  0  0  0  0  0  0  0  0  0  0
   -6.3829    0.8360    0.5741 H   0  0  0  0  0  0  0  0  0  0  0  0
   -0.6882   -1.5983   -0.1539 H   0  0  0  0  0  0  0  0  0  0  0  0
    0.4583    1.2050   -0.7258 H   0  0  0  0  0  0  0  0  0  0  0  0
    3.9620   -0.3022    1.3710 H   0  0  0  0  0  0  0  0  0  0  0  0
    4.3061   -0.7914   -0.3144 H   0  0  0  0  0  0  0  0  0  0  0  0
    5.9672    0.8929    0.4846 H   0  0  0  0  0  0  0  0  0  0  0  0
    4.9809    1.5537   -0.8417 H   0  0  0  0  0  0  0  0  0  0  0  0
    4.6426    2.0349    0.8160 H   0  0  0  0  0  0  0  0  0  0  0  0
  1  9  1  0  0  0  0
  1 10  1  0  0  0  0
  2  9  2  0  0  0  0
  3  4  1  0  0  0  0
  3  5  1  0  0  0  0
  3 12  1  0  0  0  0
  3 13  1  0  0  0  0
  4  6  1  0  0  0  0
  4 14  1  0  0  0  0
  4 15  1  0  0  0  0
  5  7  1  0  0  0  0
  5 16  1  0  0  0  0
  5 17  1  0  0  0  0
  6 18  1  0  0  0  0
  6 19  1  0  0  0  0
  6 20  1  0  0  0  0
  7  8  2  0  0  0  0
  7 21  1  0  0  0  0
  8  9  1  0  0  0  0
  8 22  1  0  0  0  0
 10 11  1  0  0  0  0
 10 23  1  0  0  0  0
 10 24  1  0  0  0  0
 11 25  1  0  0  0  0
 11 26  1  0  0  0  0
 11 27  1  0  0  0  0
M  END
> <PUBCHEM_COMPOUND_CID>
5358363

> <PUBCHEM_CONFORMER_RMSD>
0.6

> <PUBCHEM_CONFORMER_DIVERSEORDER>
1
93
213
139
195
193
89
16
216
64
181
149
75
161
211
54
184
221
77
106
194
2
108
100
200
220
120
128
95
76
185
6
176
150
171
19
29
153
35
24
152
74
96
107
143
130
3
160
113
56
86
169
197
119
8
28
53
22
189
144
135
121
166
156
99
222
123
9
134
82
12
122
165
14
52
159
116
174
215
23
212
118
84
11
66
125
155
210
50
162
206
219
157
207
132
58
67
104
203
59
41
127
68
39
72
146
26
186
17
80
147
114
205
164
60
154
88
168
85
4
18
163
183
25
177
208
145
187
179
172
151
27
202
61
201
34
43
192
21
7
87
133
140
48
37
204
73
209
33
5
175
115
117
167
49
103
182
40
142
98
45
126
63
32
180
83
173
158
170
30
81
55
141
51
214
190
131
138
199
44
10
15
70
110
111
36
112
78
13
46
148
69
137
47
101
218
20
105
92
97
38
196
188
94
31
90
62
91
124
79
136
198
109
102
178
191
65
42
57
71
217
129

> <PUBCHEM_MMFF94_PARTIAL_CHARGES>
9
1 -0.43
10 0.28
2 -0.57
21 0.15
22 0.15
5 0.14
7 -0.29
8 -0.14
9 0.71

> <PUBCHEM_EFFECTIVE_ROTOR_COUNT>
6

> <PUBCHEM_PHARMACOPHORE_FEATURES>
3
1 2 acceptor
1 6 hydrophobe
4 3 4 5 7 hydrophobe

> <PUBCHEM_HEAVY_ATOM_COUNT>
11

> <PUBCHEM_ATOM_DEF_STEREO_COUNT>
0

> <PUBCHEM_ATOM_UDEF_STEREO_COUNT>
0

> <PUBCHEM_BOND_DEF_STEREO_COUNT>
1

> <PUBCHEM_BOND_UDEF_STEREO_COUNT>
0

> <PUBCHEM_ISOTOPIC_ATOM_COUNT>
0

> <PUBCHEM_COMPONENT_COUNT>
1

> <PUBCHEM_CACTVS_TAUTO_COUNT>
1

> <PUBCHEM_CONFORMER_ID>
0051C31B00000001

> <PUBCHEM_MMFF94_ENERGY>
4.865

> <PUBCHEM_FEATURE_SELFOVERLAP>
15.223

> <PUBCHEM_SHAPE_FINGERPRINT>
100836 57 17489593367782021545
10354089 29 18342744022181489937
11062470 55 18202562873861649455
114248 4 12679458694553861877
13690532 89 8502659211826208140
14123238 8 17530965787053776821
14252887 29 17603589582098141939
14911166 2 12391514195657055324
15048467 5 17703790340522919384
15242439 84 12751235904905992061
15477762 27 8574715715142708136
17834072 33 17846773052917323159
17834076 25 17918275354954930977
18186145 218 12607396677169286527
18342897 14 18272652350686550369
20279233 1 17022907830815815323
20645477 70 18117259386014302911
20767249 13 14706928454175965273
20767249 213 18131632292544007073
20828058 44 16877947148373396883
21119208 17 10663817473261541769
22485316 2 16443342057749320907
23402539 116 11458416947443999607
23402655 69 13254804499560094385
42 15 14129054807333696281
42788 4 18060420222298907949
449060 50 18335139791057623615

> <PUBCHEM_SHAPE_MULTIPOLES>
214.64
11.51
1.03
0.82
3.17
0.13
-0.01
-4.47
2.72
-0.81
0.1
0.51
0
-0.25

> <PUBCHEM_SHAPE_SELFOVERLAP>
393.846

> <PUBCHEM_SHAPE_VOLUME>
136.7

> <PUBCHEM_COORDINATE_TYPE>
2
5
10

$$$$
