537233
  -OEChem-03052615023D

 39 38  0     0  0  0  0  0  0999 V2000
    5.2597    1.3105    0.0842 O   0  0  0  0  0  0  0  0  0  0  0  0
   -6.3753   -1.3187    0.0854 O   0  0  0  0  0  0  0  0  0  0  0  0
    0.1216    0.4160   -0.0312 C   0  0  0  0  0  0  0  0  0  0  0  0
   -1.1931   -0.3670   -0.0238 C   0  0  0  0  0  0  0  0  0  0  0  0
    1.3276   -0.5271   -0.0166 C   0  0  0  0  0  0  0  0  0  0  0  0
   -2.4368    0.5270   -0.0062 C   0  0  0  0  0  0  0  0  0  0  0  0
    2.6440    0.2557    0.0091 C   0  0  0  0  0  0  0  0  0  0  0  0
   -3.7509   -0.2608    0.0278 C   0  0  0  0  0  0  0  0  0  0  0  0
    3.8671   -0.6600   -0.0098 C   0  0  0  0  0  0  0  0  0  0  0  0
   -4.9758    0.6527   -0.0214 C   0  0  0  0  0  0  0  0  0  0  0  0
    5.1946    0.0839    0.0217 C   0  0  0  0  0  0  0  0  0  0  0  0
   -6.2996   -0.0939    0.0013 C   0  0  0  0  0  0  0  0  0  0  0  0
    6.4357   -0.7888   -0.0674 C   0  0  0  0  0  0  0  0  0  0  0  0
    7.7228    0.0131    0.0015 C   0  0  0  0  0  0  0  0  0  0  0  0
   -7.5416    0.7574   -0.0547 C   0  0  0  0  0  0  0  0  0  0  0  0
    0.1624    1.0565   -0.9204 H   0  0  0  0  0  0  0  0  0  0  0  0
    0.1587    1.0747    0.8447 H   0  0  0  0  0  0  0  0  0  0  0  0
   -1.2319   -1.0173   -0.9065 H   0  0  0  0  0  0  0  0  0  0  0  0
   -1.2164   -1.0243    0.8543 H   0  0  0  0  0  0  0  0  0  0  0  0
    1.2756   -1.1815    0.8618 H   0  0  0  0  0  0  0  0  0  0  0  0
    1.3005   -1.1716   -0.9035 H   0  0  0  0  0  0  0  0  0  0  0  0
   -2.3929    1.1896    0.8669 H   0  0  0  0  0  0  0  0  0  0  0  0
   -2.4242    1.1711   -0.8941 H   0  0  0  0  0  0  0  0  0  0  0  0
    2.6852    0.9330   -0.8533 H   0  0  0  0  0  0  0  0  0  0  0  0
    2.6759    0.8890    0.9045 H   0  0  0  0  0  0  0  0  0  0  0  0
   -3.7856   -0.8751    0.9361 H   0  0  0  0  0  0  0  0  0  0  0  0
   -3.7818   -0.9559   -0.8206 H   0  0  0  0  0  0  0  0  0  0  0  0
    3.8409   -1.3284    0.8582 H   0  0  0  0  0  0  0  0  0  0  0  0
    3.8503   -1.2729   -0.9181 H   0  0  0  0  0  0  0  0  0  0  0  0
   -4.9492    1.2536   -0.9375 H   0  0  0  0  0  0  0  0  0  0  0  0
   -4.9622    1.3325    0.8380 H   0  0  0  0  0  0  0  0  0  0  0  0
    6.3981   -1.3409   -1.0122 H   0  0  0  0  0  0  0  0  0  0  0  0
    6.4084   -1.5060    0.7596 H   0  0  0  0  0  0  0  0  0  0  0  0
    7.7867    0.5742    0.9397 H   0  0  0  0  0  0  0  0  0  0  0  0
    7.7837    0.7310   -0.8232 H   0  0  0  0  0  0  0  0  0  0  0  0
    8.5899   -0.6517   -0.0595 H   0  0  0  0  0  0  0  0  0  0  0  0
   -7.5338    1.3573   -0.9681 H   0  0  0  0  0  0  0  0  0  0  0  0
   -8.4281    0.1171   -0.0622 H   0  0  0  0  0  0  0  0  0  0  0  0
   -7.5802    1.4067    0.8233 H   0  0  0  0  0  0  0  0  0  0  0  0
  1 11  2  0  0  0  0
  2 12  2  0  0  0  0
  3  4  1  0  0  0  0
  3  5  1  0  0  0  0
  3 16  1  0  0  0  0
  3 17  1  0  0  0  0
  4  6  1  0  0  0  0
  4 18  1  0  0  0  0
  4 19  1  0  0  0  0
  5  7  1  0  0  0  0
  5 20  1  0  0  0  0
  5 21  1  0  0  0  0
  6  8  1  0  0  0  0
  6 22  1  0  0  0  0
  6 23  1  0  0  0  0
  7  9  1  0  0  0  0
  7 24  1  0  0  0  0
  7 25  1  0  0  0  0
  8 10  1  0  0  0  0
  8 26  1  0  0  0  0
  8 27  1  0  0  0  0
  9 11  1  0  0  0  0
  9 28  1  0  0  0  0
  9 29  1  0  0  0  0
 10 12  1  0  0  0  0
 10 30  1  0  0  0  0
 10 31  1  0  0  0  0
 11 13  1  0  0  0  0
 12 15  1  0  0  0  0
 13 14  1  0  0  0  0
 13 32  1  0  0  0  0
 13 33  1  0  0  0  0
 14 34  1  0  0  0  0
 14 35  1  0  0  0  0
 14 36  1  0  0  0  0
 15 37  1  0  0  0  0
 15 38  1  0  0  0  0
 15 39  1  0  0  0  0
M  END
> <PUBCHEM_COMPOUND_CID>
537233

> <PUBCHEM_CONFORMER_RMSD>
1.2

> <PUBCHEM_CONFORMER_DIVERSEORDER>
1
26
7
10
73
28
58
17
6
77
57
38
21
18
80
49
36
60
46
3
35
23
13
33
69
62
40
71
64
19
54
20
15
70
5
76
24
63
31
47
34
56
81
55
45
75
29
2
68
53
8
22
66
43
61
32
67
44
42
74
14
16
4
52
59
30
72
27
79
65
39
48
50
11
37
51
12
78
9
41
25

> <PUBCHEM_MMFF94_PARTIAL_CHARGES>
8
1 -0.57
10 0.06
11 0.45
12 0.45
13 0.06
15 0.06
2 -0.57
9 0.06

> <PUBCHEM_EFFECTIVE_ROTOR_COUNT>
10

> <PUBCHEM_PHARMACOPHORE_FEATURES>
3
1 1 acceptor
1 14 hydrophobe
1 2 acceptor

> <PUBCHEM_HEAVY_ATOM_COUNT>
15

> <PUBCHEM_ATOM_DEF_STEREO_COUNT>
0

> <PUBCHEM_ATOM_UDEF_STEREO_COUNT>
0

> <PUBCHEM_BOND_DEF_STEREO_COUNT>
0

> <PUBCHEM_BOND_UDEF_STEREO_COUNT>
0

> <PUBCHEM_ISOTOPIC_ATOM_COUNT>
0

> <PUBCHEM_COMPONENT_COUNT>
1

> <PUBCHEM_CACTVS_TAUTO_COUNT>
9

> <PUBCHEM_CONFORMER_ID>
0008329100000001

> <PUBCHEM_MMFF94_ENERGY>
3.5323

> <PUBCHEM_FEATURE_SELFOVERLAP>
15.223

> <PUBCHEM_SHAPE_FINGERPRINT>
10968037 39 18334012792256350967
11315181 36 18272374179088160937
12091667 2 17385443216111068541
13533116 47 17095794431014644714
14123256 10 18410573976566791304
1420 363 18272374174081108263
14251732 16 18410855503431243225
14251764 18 18334856113037100498
14251764 46 17988924465828349694
15716309 27 18342457049936699735
17834076 25 18410573980856483842
18006028 8 17418373584377273177
20281389 69 18335417967637055500
20621476 8 18335138661349375439
21315763 28 18411418410108190729
22224240 67 16950281828079282122
23035841 295 18409446985843977995
23402539 116 18343015605916888463
23521765 1 18341894086544365044
33532 11 18334293120593572402
33684 2 18408322172911858426
3545911 37 18335420162444133750
42788 4 18410855460128187781
4325135 7 18413107255731379997
4463277 17 18411136935648477225
57583515 80 17894633656308927569
59755656 520 17967527999965526251
8209 1 18410855455833194500

> <PUBCHEM_SHAPE_MULTIPOLES>
296.95
24.4
0.98
0.61
2
0.01
0
-0.23
-0.02
0.19
0.01
-0.01
0
0.12

> <PUBCHEM_SHAPE_SELFOVERLAP>
544.593

> <PUBCHEM_SHAPE_VOLUME>
188.1

> <PUBCHEM_COORDINATE_TYPE>
2
5
10

$$$$
