5372134
  -OEChem-03052615013D

 36 36  0     1  0  0  0  0  0999 V2000
    3.0196    0.8342   -1.3583 O   0  0  0  0  0  0  0  0  0  0  0  0
   -1.6945    0.9915    0.1961 C   0  0  0  0  0  0  0  0  0  0  0  0
   -2.5387    0.5224   -1.0217 C   0  0  0  0  0  0  0  0  0  0  0  0
   -0.4261    0.1283    0.3202 C   0  0  0  0  0  0  0  0  0  0  0  0
   -2.7855   -0.9863   -1.0507 C   0  0  0  0  0  0  0  0  0  0  0  0
   -1.4712   -1.7570   -0.9705 C   0  0  0  0  0  0  0  0  0  0  0  0
   -0.6447   -1.3182    0.2097 C   0  0  0  0  0  0  0  0  0  0  0  0
   -1.4052    2.4970   -0.0118 C   0  0  0  0  0  0  0  0  0  0  0  0
   -2.5175    0.8640    1.4984 C   0  0  0  0  0  0  0  0  0  0  0  0
    0.8185    0.6133    0.4813 C   0  0  0  0  0  0  0  0  0  0  0  0
    2.0446   -0.2450    0.5590 C   0  0  0  0  0  0  0  0  0  0  0  0
   -0.1766   -2.1974    1.1105 C   0  0  0  0  0  0  0  0  0  0  0  0
    3.2742    0.4765   -0.0011 C   0  0  1  0  0  0  0  0  0  0  0  0
    4.5031   -0.4231    0.0390 C   0  0  0  0  0  0  0  0  0  0  0  0
   -2.0245    0.8035   -1.9514 H   0  0  0  0  0  0  0  0  0  0  0  0
   -3.5060    1.0408   -1.0358 H   0  0  0  0  0  0  0  0  0  0  0  0
   -3.3096   -1.2525   -1.9761 H   0  0  0  0  0  0  0  0  0  0  0  0
   -3.4437   -1.2778   -0.2238 H   0  0  0  0  0  0  0  0  0  0  0  0
   -0.8925   -1.5933   -1.8891 H   0  0  0  0  0  0  0  0  0  0  0  0
   -1.6899   -2.8309   -0.9280 H   0  0  0  0  0  0  0  0  0  0  0  0
   -0.7792    2.6674   -0.8954 H   0  0  0  0  0  0  0  0  0  0  0  0
   -2.3361    3.0581   -0.1583 H   0  0  0  0  0  0  0  0  0  0  0  0
   -0.9005    2.9387    0.8551 H   0  0  0  0  0  0  0  0  0  0  0  0
   -3.4453    1.4444    1.4354 H   0  0  0  0  0  0  0  0  0  0  0  0
   -2.7954   -0.1716    1.7208 H   0  0  0  0  0  0  0  0  0  0  0  0
   -1.9511    1.2392    2.3593 H   0  0  0  0  0  0  0  0  0  0  0  0
    0.9780    1.6816    0.5911 H   0  0  0  0  0  0  0  0  0  0  0  0
    2.2402   -0.5044    1.6059 H   0  0  0  0  0  0  0  0  0  0  0  0
    1.9272   -1.1661   -0.0218 H   0  0  0  0  0  0  0  0  0  0  0  0
   -0.3667   -3.2606    1.0009 H   0  0  0  0  0  0  0  0  0  0  0  0
    0.3721   -1.8938    1.9954 H   0  0  0  0  0  0  0  0  0  0  0  0
    3.4679    1.3969    0.5621 H   0  0  0  0  0  0  0  0  0  0  0  0
    4.7345   -0.7341    1.0622 H   0  0  0  0  0  0  0  0  0  0  0  0
    4.3576   -1.3172   -0.5774 H   0  0  0  0  0  0  0  0  0  0  0  0
    5.3738    0.1008   -0.3699 H   0  0  0  0  0  0  0  0  0  0  0  0
    3.8039    1.3040   -1.6897 H   0  0  0  0  0  0  0  0  0  0  0  0
  1 13  1  0  0  0  0
  1 36  1  0  0  0  0
  2  3  1  0  0  0  0
  2  4  1  0  0  0  0
  2  8  1  0  0  0  0
  2  9  1  0  0  0  0
  3  5  1  0  0  0  0
  3 15  1  0  0  0  0
  3 16  1  0  0  0  0
  4  7  1  0  0  0  0
  4 10  2  0  0  0  0
  5  6  1  0  0  0  0
  5 17  1  0  0  0  0
  5 18  1  0  0  0  0
  6  7  1  0  0  0  0
  6 19  1  0  0  0  0
  6 20  1  0  0  0  0
  7 12  2  0  0  0  0
  8 21  1  0  0  0  0
  8 22  1  0  0  0  0
  8 23  1  0  0  0  0
  9 24  1  0  0  0  0
  9 25  1  0  0  0  0
  9 26  1  0  0  0  0
 10 11  1  0  0  0  0
 10 27  1  0  0  0  0
 11 13  1  0  0  0  0
 11 28  1  0  0  0  0
 11 29  1  0  0  0  0
 12 30  1  0  0  0  0
 12 31  1  0  0  0  0
 13 14  1  0  0  0  0
 13 32  1  0  0  0  0
 14 33  1  0  0  0  0
 14 34  1  0  0  0  0
 14 35  1  0  0  0  0
M  END
> <PUBCHEM_COMPOUND_CID>
5372134

> <PUBCHEM_CONFORMER_RMSD>
0.6

> <PUBCHEM_CONFORMER_DIVERSEORDER>
1
11
21
37
17
36
18
35
13
32
8
7
6
26
23
3
24
28
27
12
29
33
10
4
30
34
16
25
2
9
5
19
39
14
15
38
20
31
22

> <PUBCHEM_MMFF94_PARTIAL_CHARGES>
13
1 -0.68
10 -0.29
11 0.14
12 -0.3
13 0.28
2 0.14
27 0.15
30 0.15
31 0.15
36 0.4
4 -0.14
6 0.14
7 -0.14

> <PUBCHEM_EFFECTIVE_ROTOR_COUNT>
2.8

> <PUBCHEM_PHARMACOPHORE_FEATURES>
4
1 1 acceptor
1 1 donor
3 2 8 9 hydrophobe
6 2 3 4 5 6 7 rings

> <PUBCHEM_HEAVY_ATOM_COUNT>
14

> <PUBCHEM_ATOM_DEF_STEREO_COUNT>
0

> <PUBCHEM_ATOM_UDEF_STEREO_COUNT>
1

> <PUBCHEM_BOND_DEF_STEREO_COUNT>
1

> <PUBCHEM_BOND_UDEF_STEREO_COUNT>
0

> <PUBCHEM_ISOTOPIC_ATOM_COUNT>
0

> <PUBCHEM_COMPONENT_COUNT>
1

> <PUBCHEM_CACTVS_TAUTO_COUNT>
1

> <PUBCHEM_CONFORMER_ID>
0051F8E600000001

> <PUBCHEM_MMFF94_ENERGY>
31.9838

> <PUBCHEM_FEATURE_SELFOVERLAP>
20.297

> <PUBCHEM_SHAPE_FINGERPRINT>
10062212 137 18199175209902033938
11206711 2 18341600538588749789
12932764 1 18412825768244450328
13024252 1 17676205788520512811
13380536 55 17974838476552554469
15775835 57 18340767027086211817
16945 1 18201988945977139787
20645476 183 17822279202104749779
20653085 51 16950553428388082982
21524375 3 18267027145951023225
22802520 49 18270963573729837354
228727 97 18339066160181760147
23402539 116 18341601625125798572
23419403 2 14708914301167296079
23557571 272 17842821489784430178
23559900 14 18272356587002421264
27216 239 13551759611973298564
2748010 2 17908121519696569099
353137 74 18339066125748136311
74978 22 17968096477752028828
81228 2 18268705193841528187

> <PUBCHEM_SHAPE_MULTIPOLES>
282.24
5.75
2.08
1.24
7.39
0.08
-0.03
-0.59
1.17
-1.32
-0.13
-0.51
0.12
-0.7

> <PUBCHEM_SHAPE_SELFOVERLAP>
559.866

> <PUBCHEM_SHAPE_VOLUME>
168.2

> <PUBCHEM_COORDINATE_TYPE>
2
5
10

$$$$
