5380905
  -OEChem-03052615053D

 38 40  0     0  0  0  0  0  0999 V2000
   -0.5920    0.9456    0.0612 O   0  0  0  0  0  0  0  0  0  0  0  0
    0.2977   -2.6178    0.3750 O   0  0  0  0  0  0  0  0  0  0  0  0
   -4.7973   -1.4633    0.0581 O   0  0  0  0  0  0  0  0  0  0  0  0
   -2.4805   -2.6603    0.2491 O   0  0  0  0  0  0  0  0  0  0  0  0
    5.6859    0.5570    0.3668 O   0  0  0  0  0  0  0  0  0  0  0  0
   -4.7154    3.2720   -0.2802 O   0  0  0  0  0  0  0  0  0  0  0  0
    4.4199    0.1669   -2.0768 O   0  0  0  0  0  0  0  0  0  0  0  0
   -2.6653   -0.3165    0.0642 C   0  0  0  0  0  0  0  0  0  0  0  0
    0.1200   -0.2389    0.1653 C   0  0  0  0  0  0  0  0  0  0  0  0
   -1.9604    0.8838    0.0071 C   0  0  0  0  0  0  0  0  0  0  0  0
    1.5781   -0.0307    0.2146 C   0  0  0  0  0  0  0  0  0  0  0  0
   -0.4386   -1.4608    0.2385 C   0  0  0  0  0  0  0  0  0  0  0  0
   -1.9161   -1.5762    0.1885 C   0  0  0  0  0  0  0  0  0  0  0  0
   -4.0612   -0.3185    0.0059 C   0  0  0  0  0  0  0  0  0  0  0  0
   -2.6481    2.0921   -0.1083 C   0  0  0  0  0  0  0  0  0  0  0  0
    2.3233   -0.0292   -0.9649 C   0  0  0  0  0  0  0  0  0  0  0  0
    2.2142    0.1648    1.4409 C   0  0  0  0  0  0  0  0  0  0  0  0
   -4.0419    2.0944   -0.1672 C   0  0  0  0  0  0  0  0  0  0  0  0
   -4.7468    0.8913   -0.1103 C   0  0  0  0  0  0  0  0  0  0  0  0
    3.7034    0.1677   -0.9181 C   0  0  0  0  0  0  0  0  0  0  0  0
    4.3388    0.3632    0.3081 C   0  0  0  0  0  0  0  0  0  0  0  0
    3.5943    0.3617    1.4876 C   0  0  0  0  0  0  0  0  0  0  0  0
    0.6366   -3.1511   -0.8909 C   0  0  0  0  0  0  0  0  0  0  0  0
    6.1513    1.9028    0.2859 C   0  0  0  0  0  0  0  0  0  0  0  0
   -2.1012    3.0306   -0.1526 H   0  0  0  0  0  0  0  0  0  0  0  0
    1.8359   -0.1699   -1.9272 H   0  0  0  0  0  0  0  0  0  0  0  0
    1.6471    0.1665    2.3686 H   0  0  0  0  0  0  0  0  0  0  0  0
   -5.8333    0.8913   -0.1558 H   0  0  0  0  0  0  0  0  0  0  0  0
    4.0828    0.5127    2.4464 H   0  0  0  0  0  0  0  0  0  0  0  0
   -4.2184   -2.2372    0.1330 H   0  0  0  0  0  0  0  0  0  0  0  0
    1.1988   -4.0755   -0.7267 H   0  0  0  0  0  0  0  0  0  0  0  0
   -0.2609   -3.4068   -1.4654 H   0  0  0  0  0  0  0  0  0  0  0  0
    1.2692   -2.4806   -1.4758 H   0  0  0  0  0  0  0  0  0  0  0  0
   -5.6701    3.0881   -0.3072 H   0  0  0  0  0  0  0  0  0  0  0  0
    5.3613    0.2765   -1.8582 H   0  0  0  0  0  0  0  0  0  0  0  0
    7.2445    1.8890    0.3072 H   0  0  0  0  0  0  0  0  0  0  0  0
    5.8254    2.3716   -0.6480 H   0  0  0  0  0  0  0  0  0  0  0  0
    5.7920    2.4826    1.1419 H   0  0  0  0  0  0  0  0  0  0  0  0
  1  9  1  0  0  0  0
  1 10  1  0  0  0  0
  2 12  1  0  0  0  0
  2 23  1  0  0  0  0
  3 14  1  0  0  0  0
  3 30  1  0  0  0  0
  4 13  2  0  0  0  0
  5 21  1  0  0  0  0
  5 24  1  0  0  0  0
  6 18  1  0  0  0  0
  6 34  1  0  0  0  0
  7 20  1  0  0  0  0
  7 35  1  0  0  0  0
  8 10  1  0  0  0  0
  8 13  1  0  0  0  0
  8 14  2  0  0  0  0
  9 11  1  0  0  0  0
  9 12  2  0  0  0  0
 10 15  2  0  0  0  0
 11 16  2  0  0  0  0
 11 17  1  0  0  0  0
 12 13  1  0  0  0  0
 14 19  1  0  0  0  0
 15 18  1  0  0  0  0
 15 25  1  0  0  0  0
 16 20  1  0  0  0  0
 16 26  1  0  0  0  0
 17 22  2  0  0  0  0
 17 27  1  0  0  0  0
 18 19  2  0  0  0  0
 19 28  1  0  0  0  0
 20 21  2  0  0  0  0
 21 22  1  0  0  0  0
 22 29  1  0  0  0  0
 23 31  1  0  0  0  0
 23 32  1  0  0  0  0
 23 33  1  0  0  0  0
 24 36  1  0  0  0  0
 24 37  1  0  0  0  0
 24 38  1  0  0  0  0
M  END
> <PUBCHEM_COMPOUND_CID>
5380905

> <PUBCHEM_CONFORMER_RMSD>
0.6

> <PUBCHEM_CONFORMER_DIVERSEORDER>
1
6
10
2
5
7
12
9
4
11
3
8

> <PUBCHEM_MMFF94_PARTIAL_CHARGES>
32
1 -0.16
10 0.08
11 0.03
12 0.09
13 0.47
14 0.08
15 -0.15
16 -0.15
17 -0.15
18 0.08
19 -0.15
2 -0.36
20 0.08
21 0.08
22 -0.15
23 0.28
24 0.28
25 0.15
26 0.15
27 0.15
28 0.15
29 0.15
3 -0.53
30 0.45
34 0.45
35 0.45
4 -0.57
5 -0.36
6 -0.53
7 -0.53
8 0.09
9 0.05

> <PUBCHEM_EFFECTIVE_ROTOR_COUNT>
3

> <PUBCHEM_PHARMACOPHORE_FEATURES>
10
1 1 acceptor
1 2 acceptor
1 3 donor
1 4 acceptor
1 5 acceptor
1 6 donor
1 7 donor
6 1 8 9 10 12 13 rings
6 11 16 17 20 21 22 rings
6 8 10 14 15 18 19 rings

> <PUBCHEM_HEAVY_ATOM_COUNT>
24

> <PUBCHEM_ATOM_DEF_STEREO_COUNT>
0

> <PUBCHEM_ATOM_UDEF_STEREO_COUNT>
0

> <PUBCHEM_BOND_DEF_STEREO_COUNT>
0

> <PUBCHEM_BOND_UDEF_STEREO_COUNT>
0

> <PUBCHEM_ISOTOPIC_ATOM_COUNT>
0

> <PUBCHEM_COMPONENT_COUNT>
1

> <PUBCHEM_CACTVS_TAUTO_COUNT>
36

> <PUBCHEM_CONFORMER_ID>
00521B2900000001

> <PUBCHEM_MMFF94_ENERGY>
89.8996

> <PUBCHEM_FEATURE_SELFOVERLAP>
50.78

> <PUBCHEM_SHAPE_FINGERPRINT>
10319926 262 18268409357369808552
10411042 1 17833269006120453067
10498660 4 18339644442868105129
10670039 82 18261399914349245500
11963148 33 18263920102781738827
12107183 9 17900526888109654546
12236239 1 17676482869851181336
12390115 104 18270691861731158121
12403259 415 18343310240351614358
12403814 3 17240478088061325813
12788726 201 17390247145063268114
12916748 109 18409172142460127282
13140716 1 18120376720928139659
13540713 4 18193288403694103371
13540713 5 18194100942823959683
13911987 19 16701465701326001000
14341114 328 16805333188229555404
14386348 63 17775009020152500402
14739800 52 18046344399870696140
14790565 3 18335985358702919824
15042514 8 18193559102097202283
15196674 1 18337952298820438883
1601671 61 18333732386252120284
16752209 62 18337389443308942234
17980427 23 17967817158480013093
18186145 218 17917997165385589434
20645477 56 18130226068147245338
20645477 70 16845585188521286774
20691752 17 17168995473864028651
21033648 29 18059842996164638104
21279426 13 18271249296730202518
22122407 14 15864069867003735541
22182313 1 18267607757232238031
23366157 5 17825669950099778283
23402539 116 18341324578513486612
23557571 272 18271807960121620008
23559900 14 18197499524063460230
2748010 2 17978786041598591027
2916195 48 18343295998704745984
3298306 158 18202284667429599630
34797466 226 17987248883782031116
350125 39 18337954601197476049
469060 322 18264790864566082233
5104073 3 18262523572393845155
5265222 85 18268719493064549222
633830 44 18060129921164761389
7808743 9 18408881841178365672
9981440 41 18261116261824518587

> <PUBCHEM_SHAPE_MULTIPOLES>
452.82
11.85
2.82
1.07
7.01
0.82
0.15
-7.73
0.47
-2.95
0.3
1.46
0.04
0.7

> <PUBCHEM_SHAPE_SELFOVERLAP>
1001.731

> <PUBCHEM_SHAPE_VOLUME>
241.9

> <PUBCHEM_COORDINATE_TYPE>
2
5
10

$$$$
