541571
  -OEChem-03052615033D

 45 48  0     1  0  0  0  0  0999 V2000
    1.2088    2.3431   -0.1788 Br  0  0  0  0  0  0  0  0  0  0  0  0
   -4.3125    2.2015    1.3473 O   0  0  0  0  0  0  0  0  0  0  0  0
   -5.0675    0.3109    0.1748 O   0  0  0  0  0  0  0  0  0  0  0  0
   -1.6061   -2.1990   -0.0068 O   0  0  0  0  0  0  0  0  0  0  0  0
   -3.7773   -2.1907   -0.7037 O   0  0  0  0  0  0  0  0  0  0  0  0
    0.5923   -3.6097    0.8296 O   0  0  0  0  0  0  0  0  0  0  0  0
    5.6187    0.9397   -0.1325 N   0  0  0  0  0  0  0  0  0  0  0  0
    7.7777   -0.3242   -0.3762 N   0  0  0  0  0  0  0  0  0  0  0  0
   -1.4814    0.6117   -0.5487 C   0  0  1  0  0  0  0  0  0  0  0  0
   -2.3850   -0.3111   -1.3789 C   0  0  2  0  0  0  0  0  0  0  0  0
   -3.4779    1.9751    0.2061 C   0  0  2  0  0  0  0  0  0  0  0  0
   -4.3773    1.1855   -0.7209 C   0  0  1  0  0  0  0  0  0  0  0  0
   -2.2269    1.2136    0.6469 C   0  0  0  0  0  0  0  0  0  0  0  0
   -3.6575    0.4264   -1.8294 C   0  0  0  0  0  0  0  0  0  0  0  0
   -0.2732   -0.1564   -0.0944 C   0  0  0  0  0  0  0  0  0  0  0  0
   -2.6929   -1.6197   -0.6593 C   0  0  0  0  0  0  0  0  0  0  0  0
   -5.2150    1.0880    1.3681 C   0  0  0  0  0  0  0  0  0  0  0  0
   -0.3784   -1.5249    0.1479 C   0  0  0  0  0  0  0  0  0  0  0  0
    0.9608    0.4687    0.1135 C   0  0  0  0  0  0  0  0  0  0  0  0
    2.0611   -0.2738    0.5489 C   0  0  0  0  0  0  0  0  0  0  0  0
    0.7100   -2.2761    0.5888 C   0  0  0  0  0  0  0  0  0  0  0  0
    1.9356   -1.6437    0.7853 C   0  0  0  0  0  0  0  0  0  0  0  0
    3.4039    0.3430    0.7848 C   0  0  0  0  0  0  0  0  0  0  0  0
    4.3069    0.3322   -0.4518 C   0  0  0  0  0  0  0  0  0  0  0  0
    5.5702    2.4287   -0.1975 C   0  0  0  0  0  0  0  0  0  0  0  0
    6.7826    0.2615   -0.2628 C   0  0  0  0  0  0  0  0  0  0  0  0
   -1.1829    1.4208   -1.2262 H   0  0  0  0  0  0  0  0  0  0  0  0
   -1.8499   -0.6160   -2.2908 H   0  0  0  0  0  0  0  0  0  0  0  0
   -3.1919    2.9358   -0.2353 H   0  0  0  0  0  0  0  0  0  0  0  0
   -5.1384    1.8409   -1.1643 H   0  0  0  0  0  0  0  0  0  0  0  0
   -2.4929    0.4290    1.3687 H   0  0  0  0  0  0  0  0  0  0  0  0
   -1.5832    1.8973    1.2145 H   0  0  0  0  0  0  0  0  0  0  0  0
   -3.3666    1.1517   -2.6005 H   0  0  0  0  0  0  0  0  0  0  0  0
   -4.3521   -0.2786   -2.3015 H   0  0  0  0  0  0  0  0  0  0  0  0
   -5.0035    0.4588    2.2375 H   0  0  0  0  0  0  0  0  0  0  0  0
   -6.2409    1.4628    1.4353 H   0  0  0  0  0  0  0  0  0  0  0  0
    2.7882   -2.2278    1.1240 H   0  0  0  0  0  0  0  0  0  0  0  0
    3.9131   -0.2218    1.5803 H   0  0  0  0  0  0  0  0  0  0  0  0
    3.3170    1.3408    1.2253 H   0  0  0  0  0  0  0  0  0  0  0  0
    4.4529   -0.7012   -0.7927 H   0  0  0  0  0  0  0  0  0  0  0  0
    3.8424    0.8669   -1.2891 H   0  0  0  0  0  0  0  0  0  0  0  0
   -0.3246   -3.8745    0.6400 H   0  0  0  0  0  0  0  0  0  0  0  0
    5.5298    2.7532   -1.2421 H   0  0  0  0  0  0  0  0  0  0  0  0
    6.4679    2.8521    0.2649 H   0  0  0  0  0  0  0  0  0  0  0  0
    4.7033    2.8283    0.3335 H   0  0  0  0  0  0  0  0  0  0  0  0
  1 19  1  0  0  0  0
  2 11  1  0  0  0  0
  2 17  1  0  0  0  0
  3 12  1  0  0  0  0
  3 17  1  0  0  0  0
  4 16  1  0  0  0  0
  4 18  1  0  0  0  0
  5 16  2  0  0  0  0
  6 21  1  0  0  0  0
  6 42  1  0  0  0  0
  7 24  1  0  0  0  0
  7 25  1  0  0  0  0
  7 26  1  0  0  0  0
  8 26  3  0  0  0  0
  9 10  1  0  0  0  0
  9 13  1  0  0  0  0
  9 15  1  0  0  0  0
  9 27  1  0  0  0  0
 10 14  1  0  0  0  0
 10 16  1  0  0  0  0
 10 28  1  0  0  0  0
 11 12  1  0  0  0  0
 11 13  1  0  0  0  0
 11 29  1  0  0  0  0
 12 14  1  0  0  0  0
 12 30  1  0  0  0  0
 13 31  1  0  0  0  0
 13 32  1  0  0  0  0
 14 33  1  0  0  0  0
 14 34  1  0  0  0  0
 15 18  1  0  0  0  0
 15 19  2  0  0  0  0
 17 35  1  0  0  0  0
 17 36  1  0  0  0  0
 18 21  2  0  0  0  0
 19 20  1  0  0  0  0
 20 22  2  0  0  0  0
 20 23  1  0  0  0  0
 21 22  1  0  0  0  0
 22 37  1  0  0  0  0
 23 24  1  0  0  0  0
 23 38  1  0  0  0  0
 23 39  1  0  0  0  0
 24 40  1  0  0  0  0
 24 41  1  0  0  0  0
 25 43  1  0  0  0  0
 25 44  1  0  0  0  0
 25 45  1  0  0  0  0
M  END
> <PUBCHEM_COMPOUND_CID>
541571

> <PUBCHEM_CONFORMER_RMSD>
0.8

> <PUBCHEM_CONFORMER_DIVERSEORDER>
2
96
72
53
45
74
64
24
56
85
86
60
84
43
62
75
77
37
79
73
28
95
83
93
22
31
42
81
71
29
102
19
104
101
69
39
103
98
21
88
106
15
10
76
91
18
65
44
13
55
11
36
58
34
54
67
94
50
46
99
57
105
12
51
9
52
100
8
92
90
89
48
6
66
1
27
87
78
16
14
97
68
4
3
63
47
40
35
59
33
32
38
25
82
17
20
7
61
5
41
26
30
80
23
49
70

> <PUBCHEM_MMFF94_PARTIAL_CHARGES>
26
1 -0.11
10 0.06
11 0.28
12 0.28
15 -0.14
16 0.66
17 0.56
18 0.08
19 0.11
2 -0.56
20 -0.14
21 0.08
22 -0.15
23 0.14
24 0.36
25 0.36
26 0.68
3 -0.56
37 0.15
4 -0.23
42 0.45
5 -0.57
6 -0.53
7 -0.84
8 -0.56
9 0.14

> <PUBCHEM_EFFECTIVE_ROTOR_COUNT>
4.2

> <PUBCHEM_PHARMACOPHORE_FEATURES>
12
1 1 hydrophobe
1 2 acceptor
1 3 acceptor
1 5 acceptor
1 6 donor
1 7 cation
1 8 acceptor
3 7 8 26 cation
5 2 3 11 12 17 rings
6 15 18 19 20 21 22 rings
6 4 9 10 15 16 18 rings
6 9 10 11 12 13 14 rings

> <PUBCHEM_HEAVY_ATOM_COUNT>
26

> <PUBCHEM_ATOM_DEF_STEREO_COUNT>
0

> <PUBCHEM_ATOM_UDEF_STEREO_COUNT>
4

> <PUBCHEM_BOND_DEF_STEREO_COUNT>
0

> <PUBCHEM_BOND_UDEF_STEREO_COUNT>
0

> <PUBCHEM_ISOTOPIC_ATOM_COUNT>
0

> <PUBCHEM_COMPONENT_COUNT>
1

> <PUBCHEM_CACTVS_TAUTO_COUNT>
9

> <PUBCHEM_CONFORMER_ID>
0008438300000002

> <PUBCHEM_MMFF94_ENERGY>
75.8455

> <PUBCHEM_FEATURE_SELFOVERLAP>
63.169

> <PUBCHEM_SHAPE_FINGERPRINT>
10411042 1 17544195334082414186
10493431 412 18408889529058717817
10906281 52 18340784718847963868
1100329 8 18339646736343913056
11796584 16 14620790505421615164
12236239 1 18273215278912180857
12390115 104 18410580608091397906
12516196 113 10375866373300739948
12788726 201 17417252000701683960
12954195 1 18271801380131768767
13140716 1 18338515352238294745
13583140 156 15068611721242082670
13631057 29 18339917238370031871
13782708 43 14404325325949829461
14713325 29 18337676424697730523
14790565 3 18408045125978455804
14840074 17 17749112201377760836
14955137 171 18041012742910942492
15183329 4 18408880725298732230
1601671 61 18410006633342043000
18608769 82 18338519758827332675
200 152 9295282842354714521
21033648 29 17417517129718200240
21033650 10 16415478208340300539
21236236 1 18410293657068418466
21267235 1 18339078310934605423
21279426 13 18412822517302542084
21756936 100 18202566151122331801
23198884 109 17704353260089699056
23402539 116 18341893004988196604
23559900 14 18339639053812893624
23566358 27 18195524792273957310
25147074 1 18336249181353540202
283562 15 18263920123986952211
3009799 131 12247677141458469216
350125 39 18263363758159548105
3680242 22 18187633718519126800
38570 142 18340781342454854410
444769 64 18337394851442725954
474 4 18408037399094445777
5104073 3 18188483696789049872
59755656 520 18407761439087994730
6034566 193 17679038216478972996
7226269 152 18272654537036342504

> <PUBCHEM_SHAPE_MULTIPOLES>
501.7
13.9
2.87
1.15
21.11
1.35
0.11
-6.43
0.99
-0.51
-0.55
-1.32
-0.12
-1.24

> <PUBCHEM_SHAPE_SELFOVERLAP>
1071.662

> <PUBCHEM_SHAPE_VOLUME>
283.4

> <PUBCHEM_COORDINATE_TYPE>
2
5
10

$$$$
