5464132
  -OEChem-03052615003D

 52 57  0     0  0  0  0  0  0999 V2000
   -1.4582    1.7674   -0.9520 O   0  0  0  0  0  0  0  0  0  0  0  0
    1.4587    1.7695    0.9503 O   0  0  0  0  0  0  0  0  0  0  0  0
   -6.0338   -0.6118    0.4434 O   0  0  0  0  0  0  0  0  0  0  0  0
    6.0334   -0.6134   -0.4418 O   0  0  0  0  0  0  0  0  0  0  0  0
   -5.2624   -2.4980    2.6186 O   0  5  0  0  0  0  0  0  0  0  0  0
    5.2620   -2.4991   -2.6174 O   0  5  0  0  0  0  0  0  0  0  0  0
   -5.3324   -3.5028    0.6681 O   0  0  0  0  0  0  0  0  0  0  0  0
    5.3301   -3.5039   -0.6668 O   0  0  0  0  0  0  0  0  0  0  0  0
    0.0033   -0.1749   -0.0022 N   0  0  0  0  0  0  0  0  0  0  0  0
   -4.8034   -2.6999    1.4708 N   0  3  0  0  0  0  0  0  0  0  0  0
    4.8021   -2.7006   -1.4699 N   0  3  0  0  0  0  0  0  0  0  0  0
   -2.4701   -0.1221    0.0591 C   0  0  0  0  0  0  0  0  0  0  0  0
    2.4699   -0.1209   -0.0600 C   0  0  0  0  0  0  0  0  0  0  0  0
   -1.2464   -0.7435    0.3354 C   0  0  0  0  0  0  0  0  0  0  0  0
    1.2459   -0.7415   -0.3371 C   0  0  0  0  0  0  0  0  0  0  0  0
   -3.6656   -0.7453    0.4232 C   0  0  0  0  0  0  0  0  0  0  0  0
    3.6651   -0.7450   -0.4233 C   0  0  0  0  0  0  0  0  0  0  0  0
   -2.4855    1.1909   -0.6175 C   0  0  0  0  0  0  0  0  0  0  0  0
    2.4857    1.1921    0.6165 C   0  0  0  0  0  0  0  0  0  0  0  0
   -3.7836    1.8357   -0.9025 C   0  0  0  0  0  0  0  0  0  0  0  0
    3.7842    1.8358    0.9024 C   0  0  0  0  0  0  0  0  0  0  0  0
   -4.9791    1.2126   -0.5381 C   0  0  0  0  0  0  0  0  0  0  0  0
    4.9794    1.2119    0.5388 C   0  0  0  0  0  0  0  0  0  0  0  0
   -4.9637   -0.1005    0.1383 C   0  0  0  0  0  0  0  0  0  0  0  0
    4.9636   -0.1013   -0.1374 C   0  0  0  0  0  0  0  0  0  0  0  0
   -3.6374   -1.9901    1.0633 C   0  0  0  0  0  0  0  0  0  0  0  0
    3.6363   -1.9899   -1.0632 C   0  0  0  0  0  0  0  0  0  0  0  0
   -1.2228   -1.9839    0.9736 C   0  0  0  0  0  0  0  0  0  0  0  0
    1.2216   -1.9819   -0.9752 C   0  0  0  0  0  0  0  0  0  0  0  0
   -2.4157   -2.6059    1.3367 C   0  0  0  0  0  0  0  0  0  0  0  0
    2.4144   -2.6048   -1.3374 C   0  0  0  0  0  0  0  0  0  0  0  0
   -3.8119    3.0801   -1.5432 C   0  0  0  0  0  0  0  0  0  0  0  0
    3.8130    3.0804    1.5431 C   0  0  0  0  0  0  0  0  0  0  0  0
   -6.2029    1.8341   -0.8143 C   0  0  0  0  0  0  0  0  0  0  0  0
    6.2035    1.8325    0.8158 C   0  0  0  0  0  0  0  0  0  0  0  0
   -5.0336    3.6959   -1.8167 C   0  0  0  0  0  0  0  0  0  0  0  0
    5.0350    3.6952    1.8173 C   0  0  0  0  0  0  0  0  0  0  0  0
   -6.2266    3.0742   -1.4531 C   0  0  0  0  0  0  0  0  0  0  0  0
    6.2277    3.0725    1.4545 C   0  0  0  0  0  0  0  0  0  0  0  0
    0.0011    0.8397   -0.0009 H   0  0  0  0  0  0  0  0  0  0  0  0
   -0.2932   -2.4807    1.2378 H   0  0  0  0  0  0  0  0  0  0  0  0
    0.2920   -2.4781   -1.2403 H   0  0  0  0  0  0  0  0  0  0  0  0
   -2.3744   -3.5692    1.8403 H   0  0  0  0  0  0  0  0  0  0  0  0
    2.3727   -3.5680   -1.8410 H   0  0  0  0  0  0  0  0  0  0  0  0
   -2.8972    3.5875   -1.8379 H   0  0  0  0  0  0  0  0  0  0  0  0
    2.8985    3.5885    1.8371 H   0  0  0  0  0  0  0  0  0  0  0  0
   -7.1482    1.3724   -0.5421 H   0  0  0  0  0  0  0  0  0  0  0  0
    7.1487    1.3701    0.5443 H   0  0  0  0  0  0  0  0  0  0  0  0
   -5.0549    4.6614   -2.3138 H   0  0  0  0  0  0  0  0  0  0  0  0
    5.0567    4.6607    2.3145 H   0  0  0  0  0  0  0  0  0  0  0  0
   -7.1763    3.5558   -1.6672 H   0  0  0  0  0  0  0  0  0  0  0  0
    7.1776    3.5534    1.6693 H   0  0  0  0  0  0  0  0  0  0  0  0
  1 18  2  0  0  0  0
  2 19  2  0  0  0  0
  3 24  2  0  0  0  0
  4 25  2  0  0  0  0
  5 10  1  0  0  0  0
  6 11  1  0  0  0  0
  7 10  2  0  0  0  0
  8 11  2  0  0  0  0
  9 14  1  0  0  0  0
  9 15  1  0  0  0  0
  9 40  1  0  0  0  0
 10 26  1  0  0  0  0
 11 27  1  0  0  0  0
 12 14  2  0  0  0  0
 12 16  1  0  0  0  0
 12 18  1  0  0  0  0
 13 15  2  0  0  0  0
 13 17  1  0  0  0  0
 13 19  1  0  0  0  0
 14 28  1  0  0  0  0
 15 29  1  0  0  0  0
 16 24  1  0  0  0  0
 16 26  2  0  0  0  0
 17 25  1  0  0  0  0
 17 27  2  0  0  0  0
 18 20  1  0  0  0  0
 19 21  1  0  0  0  0
 20 22  1  0  0  0  0
 20 32  2  0  0  0  0
 21 23  1  0  0  0  0
 21 33  2  0  0  0  0
 22 24  1  0  0  0  0
 22 34  2  0  0  0  0
 23 25  1  0  0  0  0
 23 35  2  0  0  0  0
 26 30  1  0  0  0  0
 27 31  1  0  0  0  0
 28 30  2  0  0  0  0
 28 41  1  0  0  0  0
 29 31  2  0  0  0  0
 29 42  1  0  0  0  0
 30 43  1  0  0  0  0
 31 44  1  0  0  0  0
 32 36  1  0  0  0  0
 32 45  1  0  0  0  0
 33 37  1  0  0  0  0
 33 46  1  0  0  0  0
 34 38  1  0  0  0  0
 34 47  1  0  0  0  0
 35 39  1  0  0  0  0
 35 48  1  0  0  0  0
 36 38  2  0  0  0  0
 36 49  1  0  0  0  0
 37 39  2  0  0  0  0
 37 50  1  0  0  0  0
 38 51  1  0  0  0  0
 39 52  1  0  0  0  0
M  CHG  4   5  -1   6  -1  10   1  11   1
M  END
> <PUBCHEM_COMPOUND_CID>
5464132

> <PUBCHEM_CONFORMER_RMSD>
0.8

> <PUBCHEM_CONFORMER_DIVERSEORDER>
1
2
10
9
6
5
8
4
7
3

> <PUBCHEM_MMFF94_PARTIAL_CHARGES>
52
1 -0.57
10 0.91
11 0.91
12 0.09
13 0.09
14 0.1
15 0.1
16 0.09
17 0.09
18 0.4
19 0.4
2 -0.57
20 0.09
21 0.09
22 0.09
23 0.09
24 0.4
25 0.4
26 0.13
27 0.13
28 -0.15
29 -0.15
3 -0.57
30 -0.15
31 -0.15
32 -0.15
33 -0.15
34 -0.15
35 -0.15
36 -0.15
37 -0.15
38 -0.15
39 -0.15
4 -0.57
40 0.4
41 0.15
42 0.15
43 0.15
44 0.15
45 0.15
46 0.15
47 0.15
48 0.15
49 0.15
5 -0.52
50 0.15
51 0.15
52 0.15
6 -0.52
7 -0.52
8 -0.52
9 -0.6

> <PUBCHEM_EFFECTIVE_ROTOR_COUNT>
4

> <PUBCHEM_PHARMACOPHORE_FEATURES>
18
1 1 acceptor
1 2 acceptor
1 3 acceptor
1 4 acceptor
1 5 acceptor
1 5 anion
1 6 acceptor
1 6 anion
1 7 acceptor
1 8 acceptor
1 9 cation
1 9 donor
6 12 14 16 26 28 30 rings
6 12 16 18 20 22 24 rings
6 13 15 17 27 29 31 rings
6 13 17 19 21 23 25 rings
6 20 22 32 34 36 38 rings
6 21 23 33 35 37 39 rings

> <PUBCHEM_HEAVY_ATOM_COUNT>
39

> <PUBCHEM_ATOM_DEF_STEREO_COUNT>
0

> <PUBCHEM_ATOM_UDEF_STEREO_COUNT>
0

> <PUBCHEM_BOND_DEF_STEREO_COUNT>
0

> <PUBCHEM_BOND_UDEF_STEREO_COUNT>
0

> <PUBCHEM_ISOTOPIC_ATOM_COUNT>
0

> <PUBCHEM_COMPONENT_COUNT>
1

> <PUBCHEM_CACTVS_TAUTO_COUNT>
3

> <PUBCHEM_CONFORMER_ID>
0053604400000001

> <PUBCHEM_MMFF94_ENERGY>
162.711

> <PUBCHEM_FEATURE_SELFOVERLAP>
91.606

> <PUBCHEM_SHAPE_FINGERPRINT>
10258939 38 18190743235342596299
10319926 262 18187353338215387520
10411042 1 17898582131989115355
10835480 77 18341889679913772329
10864689 126 17972593286941906485
11007060 377 18335702677557745733
11411753 3 18410020935135051078
12128747 34 18338235959887719052
13383665 225 18042423454662137229
13402501 40 18410852165894027224
13540713 4 18410576184174745671
13782708 43 18410863161005361506
13811026 1 18410569587105037478
14040221 97 18267027335410080160
14068700 686 18335422412949552915
15131766 46 17273415187084485433
15276724 80 18058438967351129359
15320295 198 18411700959296594556
15351339 4 17469604014450796786
15361156 5 18189063138794466591
16096371 109 17489007328965691290
17913733 40 17988082330601038240
19246450 95 17983259851860584728
21033648 144 18271245014373293783
21033648 29 18187364299051463317
21223535 225 17769940073980815121
21279426 13 18339079276753471373
21792961 116 18269569252175569910
21859007 373 18334289846973222942
22122407 14 17632580427106212433
23559900 14 18334300833520613501
23569914 2 17834347428831272429
24771750 20 18056215789858276932
25223398 141 18115325400595056607
2747138 104 18040730190503465889
3383291 50 17605558962887026419
4015057 19 18059008385181886625
4073 2 18335136492396490408
4144715 1 18408328791045005265
437795 96 18411130372516852097
508706 21 18259983756589712021
5104073 3 18409450284289100362
6697151 62 18056748829090138910
6698420 124 18198067985262107241
9658208 31 18115026286551001605

> <PUBCHEM_SHAPE_MULTIPOLES>
740.7
18.04
4.98
1.79
0
0.68
0
6.94
0.01
0
0
0
-0.34
9.31

> <PUBCHEM_SHAPE_SELFOVERLAP>
1706.173

> <PUBCHEM_SHAPE_VOLUME>
375.6

> <PUBCHEM_COORDINATE_TYPE>
2
5
10

$$$$
