5481358
  -OEChem-03052615003D

 59 61  0     1  0  0  0  0  0999 V2000
   -2.3102    1.4225   -0.7429 P   0  0  1  0  0  0  0  0  0  0  0  0
    1.6160    0.5519   -1.9909 O   0  0  0  0  0  0  0  0  0  0  0  0
   -1.3443    1.1773   -2.0318 O   0  0  0  0  0  0  0  0  0  0  0  0
   -1.3276    0.9799    0.4690 O   0  0  0  0  0  0  0  0  0  0  0  0
   -2.7082    2.8744   -0.6538 O   0  0  0  0  0  0  0  0  0  0  0  0
    5.0412   -0.2897   -0.4301 O   0  0  0  0  0  0  0  0  0  0  0  0
    3.1027   -2.8928    2.8278 O   0  0  0  0  0  0  0  0  0  0  0  0
   -5.8214   -1.2934    1.4562 O   0  0  0  0  0  0  0  0  0  0  0  0
   -4.6097   -2.1243   -0.3192 O   0  0  0  0  0  0  0  0  0  0  0  0
    2.8548   -1.0352   -0.7560 N   0  0  0  0  0  0  0  0  0  0  0  0
   -3.5391    0.3096   -0.8299 N   0  0  0  0  0  0  0  0  0  0  0  0
    4.0625   -1.5895    1.1864 N   0  0  0  0  0  0  0  0  0  0  0  0
    0.6103    0.1547   -2.9487 C   0  0  2  0  0  0  0  0  0  0  0  0
    2.7010   -0.3897   -2.0547 C   0  0  1  0  0  0  0  0  0  0  0  0
   -0.7019   -0.0730   -2.2172 C   0  0  0  0  0  0  0  0  0  0  0  0
    1.1359   -1.0766   -3.5962 C   0  0  0  0  0  0  0  0  0  0  0  0
    2.3251   -1.3857   -3.0847 C   0  0  0  0  0  0  0  0  0  0  0  0
    1.7851   -1.7559   -0.2661 C   0  0  0  0  0  0  0  0  0  0  0  0
    4.0550   -0.9196   -0.0422 C   0  0  0  0  0  0  0  0  0  0  0  0
   -4.4984    0.2426    0.2623 C   0  0  1  0  0  0  0  0  0  0  0  0
    1.7956   -2.3958    0.9099 C   0  0  0  0  0  0  0  0  0  0  0  0
    3.0281   -2.3290    1.7393 C   0  0  0  0  0  0  0  0  0  0  0  0
   -5.6780    1.1591   -0.0319 C   0  0  0  0  0  0  0  0  0  0  0  0
    0.6347   -3.1759    1.4377 C   0  0  0  0  0  0  0  0  0  0  0  0
   -0.1960    1.6446    0.8579 C   0  0  0  0  0  0  0  0  0  0  0  0
   -4.9589   -1.1965    0.3992 C   0  0  0  0  0  0  0  0  0  0  0  0
    0.5678    1.1597    1.9196 C   0  0  0  0  0  0  0  0  0  0  0  0
    0.1936    2.8066    0.1919 C   0  0  0  0  0  0  0  0  0  0  0  0
    2.1108    2.9990    1.6493 C   0  0  0  0  0  0  0  0  0  0  0  0
    1.7212    1.8369    2.3153 C   0  0  0  0  0  0  0  0  0  0  0  0
    1.3470    3.4838    0.5876 C   0  0  0  0  0  0  0  0  0  0  0  0
    3.3440    3.7224    2.0728 C   0  0  0  0  0  0  0  0  0  0  0  0
   -6.3386   -2.6028    1.7138 C   0  0  0  0  0  0  0  0  0  0  0  0
    0.5187    0.9640   -3.6818 H   0  0  0  0  0  0  0  0  0  0  0  0
    3.6088    0.1507   -2.3402 H   0  0  0  0  0  0  0  0  0  0  0  0
   -0.5783   -0.5605   -1.2526 H   0  0  0  0  0  0  0  0  0  0  0  0
   -1.3788   -0.6865   -2.8218 H   0  0  0  0  0  0  0  0  0  0  0  0
    0.6332   -1.6316   -4.3740 H   0  0  0  0  0  0  0  0  0  0  0  0
    2.9292   -2.2275   -3.3889 H   0  0  0  0  0  0  0  0  0  0  0  0
    0.9087   -1.8418   -0.8872 H   0  0  0  0  0  0  0  0  0  0  0  0
   -4.0249    0.2295   -1.7228 H   0  0  0  0  0  0  0  0  0  0  0  0
   -4.0110    0.5211    1.2037 H   0  0  0  0  0  0  0  0  0  0  0  0
    4.9180   -1.5258    1.7311 H   0  0  0  0  0  0  0  0  0  0  0  0
   -6.2250    0.8386   -0.9264 H   0  0  0  0  0  0  0  0  0  0  0  0
   -6.3915    1.1597    0.7995 H   0  0  0  0  0  0  0  0  0  0  0  0
   -5.3541    2.1940   -0.1825 H   0  0  0  0  0  0  0  0  0  0  0  0
    0.3017   -2.7637    2.3959 H   0  0  0  0  0  0  0  0  0  0  0  0
   -0.2194   -3.1529    0.7525 H   0  0  0  0  0  0  0  0  0  0  0  0
    0.9139   -4.2239    1.5872 H   0  0  0  0  0  0  0  0  0  0  0  0
    0.2688    0.2550    2.4418 H   0  0  0  0  0  0  0  0  0  0  0  0
   -0.3449    3.2151   -0.6537 H   0  0  0  0  0  0  0  0  0  0  0  0
    2.3079    1.4491    3.1439 H   0  0  0  0  0  0  0  0  0  0  0  0
    1.6430    4.3858    0.0583 H   0  0  0  0  0  0  0  0  0  0  0  0
    3.7960    4.2610    1.2330 H   0  0  0  0  0  0  0  0  0  0  0  0
    4.0999    3.0247    2.4491 H   0  0  0  0  0  0  0  0  0  0  0  0
    3.1053    4.4419    2.8623 H   0  0  0  0  0  0  0  0  0  0  0  0
   -6.9091   -2.9608    0.8515 H   0  0  0  0  0  0  0  0  0  0  0  0
   -5.5228   -3.2920    1.9516 H   0  0  0  0  0  0  0  0  0  0  0  0
   -7.0079   -2.5403    2.5760 H   0  0  0  0  0  0  0  0  0  0  0  0
  1  3  1  0  0  0  0
  1  4  1  0  0  0  0
  1  5  2  0  0  0  0
  1 11  1  0  0  0  0
  2 13  1  0  0  0  0
  2 14  1  0  0  0  0
  3 15  1  0  0  0  0
  4 25  1  0  0  0  0
  6 19  2  0  0  0  0
  7 22  2  0  0  0  0
  8 26  1  0  0  0  0
  8 33  1  0  0  0  0
  9 26  2  0  0  0  0
 10 14  1  0  0  0  0
 10 18  1  0  0  0  0
 10 19  1  0  0  0  0
 11 20  1  0  0  0  0
 11 41  1  0  0  0  0
 12 19  1  0  0  0  0
 12 22  1  0  0  0  0
 12 43  1  0  0  0  0
 13 15  1  0  0  0  0
 13 16  1  0  0  0  0
 13 34  1  0  0  0  0
 14 17  1  0  0  0  0
 14 35  1  0  0  0  0
 15 36  1  0  0  0  0
 15 37  1  0  0  0  0
 16 17  2  0  0  0  0
 16 38  1  0  0  0  0
 17 39  1  0  0  0  0
 18 21  2  0  0  0  0
 18 40  1  0  0  0  0
 20 23  1  0  0  0  0
 20 26  1  0  0  0  0
 20 42  1  0  0  0  0
 21 22  1  0  0  0  0
 21 24  1  0  0  0  0
 23 44  1  0  0  0  0
 23 45  1  0  0  0  0
 23 46  1  0  0  0  0
 24 47  1  0  0  0  0
 24 48  1  0  0  0  0
 24 49  1  0  0  0  0
 25 27  2  0  0  0  0
 25 28  1  0  0  0  0
 27 30  1  0  0  0  0
 27 50  1  0  0  0  0
 28 31  2  0  0  0  0
 28 51  1  0  0  0  0
 29 30  2  0  0  0  0
 29 31  1  0  0  0  0
 29 32  1  0  0  0  0
 30 52  1  0  0  0  0
 31 53  1  0  0  0  0
 32 54  1  0  0  0  0
 32 55  1  0  0  0  0
 32 56  1  0  0  0  0
 33 57  1  0  0  0  0
 33 58  1  0  0  0  0
 33 59  1  0  0  0  0
M  END
> <PUBCHEM_COMPOUND_CID>
5481358

> <PUBCHEM_CONFORMER_RMSD>
1.4

> <PUBCHEM_CONFORMER_DIVERSEORDER>
1
5
19
196
162
58
97
61
171
15
127
73
165
183
163
81
184
79
156
179
187
16
96
188
76
54
121
27
92
101
8
77
12
9
129
4
170
23
152
87
100
84
134
99
143
67
202
177
95
94
60
107
197
176
125
103
191
63
139
115
69
164
85
21
31
157
141
147
190
2
33
93
186
83
136
149
44
57
155
135
50
200
42
13
32
91
195
56
113
34
59
144
198
169
182
166
145
106
173
22
53
137
75
175
167
109
146
123
43
102
66
26
124
118
117
153
82
86
65
20
14
70
62
168
17
199
72
29
37
132
192
39
128
105
64
55
52
160
172
111
11
131
80
142
108
30
49
114
180
120
3
24
74
104
158
112
88
18
189
25
46
150
40
48
161
151
116
71
47
181
41
138
185
10
119
68
35
38
130
140
110
36
133
6
193
45
51
194
7
122
174
78
28
154
159
126
178
90
89
98
201
148

> <PUBCHEM_MMFF94_PARTIAL_CHARGES>
41
1 1.51
10 -0.47
11 -0.9
12 -0.49
13 0.42
14 0.72
15 0.28
16 -0.29
17 -0.29
18 -0.04
19 0.69
2 -0.56
20 0.33
21 -0.12
22 0.62
24 0.14
25 0.08
26 0.66
27 -0.15
28 -0.15
29 -0.14
3 -0.55
30 -0.15
31 -0.15
32 0.14
33 0.28
38 0.15
39 0.15
4 -0.35
40 0.15
41 0.36
43 0.37
5 -0.7
50 0.15
51 0.15
52 0.15
53 0.15
6 -0.57
7 -0.57
8 -0.43
9 -0.57

> <PUBCHEM_EFFECTIVE_ROTOR_COUNT>
10.6

> <PUBCHEM_PHARMACOPHORE_FEATURES>
9
1 12 donor
1 2 acceptor
1 5 acceptor
1 6 acceptor
1 7 acceptor
1 9 acceptor
5 2 13 14 16 17 rings
6 10 12 18 19 21 22 rings
6 25 27 28 29 30 31 rings

> <PUBCHEM_HEAVY_ATOM_COUNT>
33

> <PUBCHEM_ATOM_DEF_STEREO_COUNT>
3

> <PUBCHEM_ATOM_UDEF_STEREO_COUNT>
1

> <PUBCHEM_BOND_DEF_STEREO_COUNT>
0

> <PUBCHEM_BOND_UDEF_STEREO_COUNT>
0

> <PUBCHEM_ISOTOPIC_ATOM_COUNT>
0

> <PUBCHEM_COMPONENT_COUNT>
1

> <PUBCHEM_CACTVS_TAUTO_COUNT>
6

> <PUBCHEM_CONFORMER_ID>
0053A38E00000001

> <PUBCHEM_MMFF94_ENERGY>
61.2447

> <PUBCHEM_FEATURE_SELFOVERLAP>
45.674

> <PUBCHEM_SHAPE_FINGERPRINT>
12422481 6 17702643532625381960
12633257 1 17917706937877732175
133893 2 17768203042902819468
13583140 156 18194096569650480069
14068700 675 17972035834631032922
14955137 171 17418379086388673628
19315092 285 17677887938559265410
20764821 26 17609228092959610507
21304303 94 16516543247181170347
21421861 104 17417265323975182649
23419403 2 17263608715858996812
23559900 14 18186796977053508565
25222932 49 18412260657500778134
3411729 13 17986959741982572953
35225 105 16690766563433067800
3797600 57 18268987601554187614
437795 51 18271250546592085120
463206 1 17531544126044169127
484985 159 15951023318426880562
563151 248 17486468672190896208
563151 40 17481702379331522304
56638632 33 17751626672664204435
66674814 147 16588312644080635714
7471813 234 13191434159187938953

> <PUBCHEM_SHAPE_MULTIPOLES>
621.08
10.33
4.31
3.32
18.97
2.9
1.56
-5.05
-5.03
-2.83
-2.69
-2.2
-2.06
2.2

> <PUBCHEM_SHAPE_SELFOVERLAP>
1290.641

> <PUBCHEM_SHAPE_VOLUME>
355.1

> <PUBCHEM_COORDINATE_TYPE>
2
5
10

$$$$
