5484066
  -OEChem-03052615053D

 70 74  0     1  0  0  0  0  0999 V2000
    0.3133   -1.6549    1.0006 O   0  0  0  0  0  0  0  0  0  0  0  0
   -2.1601   -1.6020   -0.1975 O   0  0  0  0  0  0  0  0  0  0  0  0
   -4.1367   -2.6381   -0.8829 O   0  0  0  0  0  0  0  0  0  0  0  0
    0.0584   -5.1937    0.0922 O   0  0  0  0  0  0  0  0  0  0  0  0
    2.4803   -5.0795    1.6661 O   0  0  0  0  0  0  0  0  0  0  0  0
    2.1148   -0.3069    1.6181 O   0  0  0  0  0  0  0  0  0  0  0  0
    3.8570   -2.5073    1.2555 O   0  0  0  0  0  0  0  0  0  0  0  0
   -3.5749    0.8633    0.0584 O   0  0  0  0  0  0  0  0  0  0  0  0
   -5.8936    1.0291   -1.6368 O   0  0  0  0  0  0  0  0  0  0  0  0
   -5.6878   -1.4236   -2.9432 O   0  0  0  0  0  0  0  0  0  0  0  0
    1.4079    2.7393   -0.3334 O   0  0  0  0  0  0  0  0  0  0  0  0
   -0.3238    0.5562    2.6397 O   0  0  0  0  0  0  0  0  0  0  0  0
   -2.3278    2.2342    2.7125 O   0  0  0  0  0  0  0  0  0  0  0  0
   -2.1477    5.8840   -0.3193 O   0  0  0  0  0  0  0  0  0  0  0  0
    4.5314   -0.6298   -3.3642 O   0  0  0  0  0  0  0  0  0  0  0  0
    6.8994    0.4070   -2.3462 O   0  0  0  0  0  0  0  0  0  0  0  0
   -0.1477   -2.7982    0.2785 C   0  0  1  0  0  0  0  0  0  0  0  0
    0.4598   -4.0710    0.8729 C   0  0  2  0  0  0  0  0  0  0  0  0
    1.9862   -3.9869    0.8899 C   0  0  1  0  0  0  0  0  0  0  0  0
    2.4610   -2.6702    1.5045 C   0  0  2  0  0  0  0  0  0  0  0  0
    1.7240   -1.4759    0.8984 C   0  0  1  0  0  0  0  0  0  0  0  0
   -1.6710   -2.8090    0.3582 C   0  0  0  0  0  0  0  0  0  0  0  0
   -3.5853   -1.5411   -0.1571 C   0  0  2  0  0  0  0  0  0  0  0  0
   -4.0142   -0.2082   -0.7762 C   0  0  1  0  0  0  0  0  0  0  0  0
   -5.5354   -0.1344   -0.8960 C   0  0  2  0  0  0  0  0  0  0  0  0
   -6.0967   -1.3826   -1.5750 C   0  0  2  0  0  0  0  0  0  0  0  0
   -5.5666   -2.6379   -0.8939 C   0  0  0  0  0  0  0  0  0  0  0  0
    1.4856    0.8198    1.1348 C   0  0  0  0  0  0  0  0  0  0  0  0
    1.9980    1.5832    0.1525 C   0  0  0  0  0  0  0  0  0  0  0  0
    0.1918    1.2118    1.7442 C   0  0  0  0  0  0  0  0  0  0  0  0
   -0.4361    2.4322    1.2148 C   0  0  0  0  0  0  0  0  0  0  0  0
    0.2084    3.1350    0.1993 C   0  0  0  0  0  0  0  0  0  0  0  0
    3.2804    1.2729   -0.5041 C   0  0  0  0  0  0  0  0  0  0  0  0
   -1.6576    2.8838    1.7203 C   0  0  0  0  0  0  0  0  0  0  0  0
   -0.3656    4.2967   -0.3180 C   0  0  0  0  0  0  0  0  0  0  0  0
    3.3055    0.4597   -1.6374 C   0  0  0  0  0  0  0  0  0  0  0  0
    4.4698    1.7930    0.0070 C   0  0  0  0  0  0  0  0  0  0  0  0
   -2.2299    4.0457    1.2011 C   0  0  0  0  0  0  0  0  0  0  0  0
   -1.5854    4.7509    0.1839 C   0  0  0  0  0  0  0  0  0  0  0  0
    4.5192    0.1667   -2.2593 C   0  0  0  0  0  0  0  0  0  0  0  0
    5.6835    1.4998   -0.6149 C   0  0  0  0  0  0  0  0  0  0  0  0
    5.7082    0.6868   -1.7480 C   0  0  0  0  0  0  0  0  0  0  0  0
    0.1357   -2.6842   -0.7767 H   0  0  0  0  0  0  0  0  0  0  0  0
    0.0857   -4.2263    1.8930 H   0  0  0  0  0  0  0  0  0  0  0  0
    2.3956   -4.1172   -0.1188 H   0  0  0  0  0  0  0  0  0  0  0  0
    2.3290   -2.6824    2.5935 H   0  0  0  0  0  0  0  0  0  0  0  0
    2.0043   -1.3719   -0.1550 H   0  0  0  0  0  0  0  0  0  0  0  0
   -1.9908   -2.8705    1.4055 H   0  0  0  0  0  0  0  0  0  0  0  0
   -2.0644   -3.6721   -0.1892 H   0  0  0  0  0  0  0  0  0  0  0  0
   -3.9000   -1.5955    0.8939 H   0  0  0  0  0  0  0  0  0  0  0  0
   -3.5412   -0.0609   -1.7541 H   0  0  0  0  0  0  0  0  0  0  0  0
   -5.9854   -0.0296    0.0992 H   0  0  0  0  0  0  0  0  0  0  0  0
   -7.1917   -1.3576   -1.5665 H   0  0  0  0  0  0  0  0  0  0  0  0
   -5.8797   -3.5330   -1.4411 H   0  0  0  0  0  0  0  0  0  0  0  0
   -5.9360   -2.7224    0.1345 H   0  0  0  0  0  0  0  0  0  0  0  0
    0.4764   -5.9817    0.4797 H   0  0  0  0  0  0  0  0  0  0  0  0
    2.1466   -4.9807    2.5740 H   0  0  0  0  0  0  0  0  0  0  0  0
    4.3103   -3.2839    1.6258 H   0  0  0  0  0  0  0  0  0  0  0  0
   -3.9656    0.7392    0.9402 H   0  0  0  0  0  0  0  0  0  0  0  0
   -5.5040    1.7954   -1.1819 H   0  0  0  0  0  0  0  0  0  0  0  0
   -6.0865   -2.2142   -3.3453 H   0  0  0  0  0  0  0  0  0  0  0  0
    0.1402    4.8431   -1.1103 H   0  0  0  0  0  0  0  0  0  0  0  0
    2.3828    0.0577   -2.0502 H   0  0  0  0  0  0  0  0  0  0  0  0
    4.4663    2.4286    0.8892 H   0  0  0  0  0  0  0  0  0  0  0  0
   -3.1809    4.4036    1.5884 H   0  0  0  0  0  0  0  0  0  0  0  0
    6.6024    1.9115   -0.2060 H   0  0  0  0  0  0  0  0  0  0  0  0
   -1.8514    1.4324    2.9766 H   0  0  0  0  0  0  0  0  0  0  0  0
   -1.5686    6.2418   -1.0140 H   0  0  0  0  0  0  0  0  0  0  0  0
    5.4529   -0.7268   -3.6612 H   0  0  0  0  0  0  0  0  0  0  0  0
    7.6123    0.8512   -1.8557 H   0  0  0  0  0  0  0  0  0  0  0  0
  1 17  1  0  0  0  0
  1 21  1  0  0  0  0
  2 22  1  0  0  0  0
  2 23  1  0  0  0  0
  3 23  1  0  0  0  0
  3 27  1  0  0  0  0
  4 18  1  0  0  0  0
  4 56  1  0  0  0  0
  5 19  1  0  0  0  0
  5 57  1  0  0  0  0
  6 21  1  0  0  0  0
  6 28  1  0  0  0  0
  7 20  1  0  0  0  0
  7 58  1  0  0  0  0
  8 24  1  0  0  0  0
  8 59  1  0  0  0  0
  9 25  1  0  0  0  0
  9 60  1  0  0  0  0
 10 26  1  0  0  0  0
 10 61  1  0  0  0  0
 11 29  1  0  0  0  0
 11 32  1  0  0  0  0
 12 30  2  0  0  0  0
 13 34  1  0  0  0  0
 13 67  1  0  0  0  0
 14 39  1  0  0  0  0
 14 68  1  0  0  0  0
 15 40  1  0  0  0  0
 15 69  1  0  0  0  0
 16 42  1  0  0  0  0
 16 70  1  0  0  0  0
 17 18  1  0  0  0  0
 17 22  1  0  0  0  0
 17 43  1  0  0  0  0
 18 19  1  0  0  0  0
 18 44  1  0  0  0  0
 19 20  1  0  0  0  0
 19 45  1  0  0  0  0
 20 21  1  0  0  0  0
 20 46  1  0  0  0  0
 21 47  1  0  0  0  0
 22 48  1  0  0  0  0
 22 49  1  0  0  0  0
 23 24  1  0  0  0  0
 23 50  1  0  0  0  0
 24 25  1  0  0  0  0
 24 51  1  0  0  0  0
 25 26  1  0  0  0  0
 25 52  1  0  0  0  0
 26 27  1  0  0  0  0
 26 53  1  0  0  0  0
 27 54  1  0  0  0  0
 27 55  1  0  0  0  0
 28 29  2  0  0  0  0
 28 30  1  0  0  0  0
 29 33  1  0  0  0  0
 30 31  1  0  0  0  0
 31 32  1  0  0  0  0
 31 34  2  0  0  0  0
 32 35  2  0  0  0  0
 33 36  2  0  0  0  0
 33 37  1  0  0  0  0
 34 38  1  0  0  0  0
 35 39  1  0  0  0  0
 35 62  1  0  0  0  0
 36 40  1  0  0  0  0
 36 63  1  0  0  0  0
 37 41  2  0  0  0  0
 37 64  1  0  0  0  0
 38 39  2  0  0  0  0
 38 65  1  0  0  0  0
 40 42  2  0  0  0  0
 41 42  1  0  0  0  0
 41 66  1  0  0  0  0
M  END
> <PUBCHEM_COMPOUND_CID>
5484066

> <PUBCHEM_CONFORMER_RMSD>
1

> <PUBCHEM_CONFORMER_DIVERSEORDER>
1
14
124
328
351
403
404
325
194
279
190
45
239
360
197
391
267
245
451
220
192
157
170
215
361
441
12
280
306
241
29
166
114
212
313
184
49
339
219
262
289
41
145
318
132
260
315
457
465
243
453
422
203
357
400
2
437
286
18
4
153
291
307
115
106
327
288
438
169
160
148
347
91
22
332
69
129
275
459
112
181
207
206
302
210
38
298
408
67
204
380
390
150
152
303
99
268
285
274
234
9
19
259
85
185
138
15
336
20
370
122
443
223
161
319
118
23
417
424
349
164
102
180
300
454
402
419
59
278
62
178
389
316
63
93
356
396
252
253
271
86
415
65
461
251
182
64
119
116
40
388
345
133
136
35
474
406
469
373
432
358
284
398
168
95
31
211
385
281
340
455
378
222
413
28
36
335
198
176
317
228
416
450
399
201
476
76
193
174
125
162
205
314
384
330
412
235
352
414
21
202
135
277
39
183
442
128
232
344
464
342
341
141
32
430
475
329
405
264
350
60
5
353
101
16
173
89
158
233
393
156
366
84
217
322
224
436
167
364
227
107
383
479
381
343
126
37
338
221
242
435
326
478
97
367
395
305
237
446
369
368
470
263
418
258
47
188
377
270
250
431
78
292
81
445
209
33
154
25
6
144
410
26
433
147
214
334
485
177
256
423
88
240
449
53
72
273
471
146
265
134
371
83
163
11
310
123
195
483
51
55
304
96
94
121
296
175
392
372
127
466
131
269
46
80
236
255
50
320
27
297
409
429
43
440
379
104
179
312
444
420
113
382
149
355
434
3
17
456
7
363
61
248
218
309
111
155
472
477
216
226
200
225
331
293
333
365
229
362
66
120
238
257
394
295
486
98
276
137
73
68
299
100
171
109
58
191
411
13
213
244
324
447
468
79
103
187
323
301
48
71
282
261
208
82
467
290
266
287
308
186
387
482
56
75
44
386
230
448
254
376
90
10
139
463
481
458
74
346
348
70
54
110
321
272
421
92
108
189
337
428
397
142
159
130
473
57
105
196
172
460
294
375
199
484
407
77
452
117
401
359
249
151
87
462
283
311
231
480
52
8
247
34
143
427
165
24
439
140
425
30
374
42
426
354
246

> <PUBCHEM_MMFF94_PARTIAL_CHARGES>
57
1 -0.56
10 -0.68
11 -0.16
12 -0.57
13 -0.53
14 -0.53
15 -0.53
16 -0.53
17 0.28
18 0.28
19 0.28
2 -0.56
20 0.28
21 0.56
22 0.28
23 0.56
24 0.28
25 0.28
26 0.28
27 0.28
28 0.09
29 0.05
3 -0.56
30 0.47
31 0.09
32 0.08
33 0.03
34 0.08
35 -0.15
36 -0.15
37 -0.15
38 -0.15
39 0.08
4 -0.68
40 0.08
41 -0.15
42 0.08
5 -0.68
56 0.4
57 0.4
58 0.4
59 0.4
6 -0.36
60 0.4
61 0.4
62 0.15
63 0.15
64 0.15
65 0.15
66 0.15
67 0.45
68 0.45
69 0.45
7 -0.68
70 0.45
8 -0.68
9 -0.68

> <PUBCHEM_EFFECTIVE_ROTOR_COUNT>
8.4

> <PUBCHEM_PHARMACOPHORE_FEATURES>
27
1 1 acceptor
1 10 acceptor
1 10 donor
1 11 acceptor
1 12 acceptor
1 13 donor
1 14 donor
1 15 donor
1 16 donor
1 2 acceptor
1 3 acceptor
1 4 acceptor
1 4 donor
1 5 acceptor
1 5 donor
1 6 acceptor
1 7 acceptor
1 7 donor
1 8 acceptor
1 8 donor
1 9 acceptor
1 9 donor
6 1 17 18 19 20 21 rings
6 11 28 29 30 31 32 rings
6 3 23 24 25 26 27 rings
6 31 32 34 35 38 39 rings
6 33 36 37 40 41 42 rings

> <PUBCHEM_HEAVY_ATOM_COUNT>
42

> <PUBCHEM_ATOM_DEF_STEREO_COUNT>
9

> <PUBCHEM_ATOM_UDEF_STEREO_COUNT>
0

> <PUBCHEM_BOND_DEF_STEREO_COUNT>
0

> <PUBCHEM_BOND_UDEF_STEREO_COUNT>
0

> <PUBCHEM_ISOTOPIC_ATOM_COUNT>
0

> <PUBCHEM_COMPONENT_COUNT>
1

> <PUBCHEM_CACTVS_TAUTO_COUNT>
162

> <PUBCHEM_CONFORMER_ID>
0053AE2200000001

> <PUBCHEM_MMFF94_ENERGY>
132.0758

> <PUBCHEM_FEATURE_SELFOVERLAP>
137.217

> <PUBCHEM_SHAPE_FINGERPRINT>
10190108 129 18122096219443075857
10190206 1 18337967752793369172
10483366 6 18408604786155226702
10653451 467 17695613435677617232
10675989 125 18337387236143696896
10930396 42 17981011397526048040
10940486 97 17617371780248686626
11285246 1 18270418198592654717
11513181 2 18199193879934920734
11578080 2 14779558876623783440
12156800 1 17769380426408345398
12788726 201 18341896268488212160
13383661 66 17988655132872066791
13636023 51 14260778598470927443
140371 6 18120362173278588723
14400156 266 18122903132530205550
14415361 349 17477477608669603478
14931854 50 18411131472412913751
15351339 4 18335692884051090395
15406563 228 17613988599949396885
15950262 2 15502648342832407079
17627616 140 18335705975111161431
19311894 1 18196105549457135210
20465049 17 18193556890199256451
20764821 26 18121195625188933509
20775438 99 17767675423450653876
21583282 1 17973185949305209557
23536364 44 18339372975286221059
513532 50 17773863375996577178
563151 248 17271767989790307617
5776283 40 17685496850453796045

> <PUBCHEM_SHAPE_MULTIPOLES>
770.43
12.23
7.27
2.4
3.09
0.9
0.79
-2.84
12.54
2.46
-3.06
-1.03
-0.25
-2.98

> <PUBCHEM_SHAPE_SELFOVERLAP>
1683.829

> <PUBCHEM_SHAPE_VOLUME>
410.9

> <PUBCHEM_COORDINATE_TYPE>
2
5
10

$$$$
