5491684
  -OEChem-03052615043D

 39 42  0     0  0  0  0  0  0999 V2000
    1.0091    2.0675    0.8145 O   0  0  0  0  0  0  0  0  0  0  0  0
    1.0665   -2.5809   -0.0174 N   0  0  0  0  0  0  0  0  0  0  0  0
   -2.4346   -1.4694    0.0513 N   0  0  0  0  0  0  0  0  0  0  0  0
    3.0633    1.2283   -0.1268 C   0  0  0  0  0  0  0  0  0  0  0  0
    3.5716   -0.0661   -0.7860 C   0  0  0  0  0  0  0  0  0  0  0  0
    3.1191   -1.3027   -0.0213 C   0  0  0  0  0  0  0  0  0  0  0  0
    0.8733   -0.1620    0.0987 C   0  0  0  0  0  0  0  0  0  0  0  0
    1.5858    1.1251    0.2787 C   0  0  0  0  0  0  0  0  0  0  0  0
    1.6177   -1.3461    0.0200 C   0  0  0  0  0  0  0  0  0  0  0  0
   -0.5384   -0.2727    0.0534 C   0  0  0  0  0  0  0  0  0  0  0  0
    3.8794    1.5449    1.1392 C   0  0  0  0  0  0  0  0  0  0  0  0
    3.2119    2.3896   -1.1219 C   0  0  0  0  0  0  0  0  0  0  0  0
   -1.0673   -1.5681    0.0337 C   0  0  0  0  0  0  0  0  0  0  0  0
   -1.6712    0.6247   -0.0151 C   0  0  0  0  0  0  0  0  0  0  0  0
   -0.2748   -2.7062    0.0097 C   0  0  0  0  0  0  0  0  0  0  0  0
   -2.8294   -0.1578    0.0094 C   0  0  0  0  0  0  0  0  0  0  0  0
   -1.8441    2.0248   -0.1242 C   0  0  0  0  0  0  0  0  0  0  0  0
   -0.8277   -4.0899   -0.0084 C   0  0  0  0  0  0  0  0  0  0  0  0
   -4.1237    0.3772   -0.0234 C   0  0  0  0  0  0  0  0  0  0  0  0
   -3.1313    2.5771   -0.1605 C   0  0  0  0  0  0  0  0  0  0  0  0
   -4.2552    1.7628   -0.1036 C   0  0  0  0  0  0  0  0  0  0  0  0
    4.6664   -0.0569   -0.8557 H   0  0  0  0  0  0  0  0  0  0  0  0
    3.1968   -0.1317   -1.8174 H   0  0  0  0  0  0  0  0  0  0  0  0
    3.5118   -1.3133    1.0007 H   0  0  0  0  0  0  0  0  0  0  0  0
    3.5013   -2.1971   -0.5274 H   0  0  0  0  0  0  0  0  0  0  0  0
    3.5874    2.5103    1.5692 H   0  0  0  0  0  0  0  0  0  0  0  0
    3.7250    0.7926    1.9200 H   0  0  0  0  0  0  0  0  0  0  0  0
    4.9515    1.5921    0.9191 H   0  0  0  0  0  0  0  0  0  0  0  0
    4.2517    2.5011   -1.4486 H   0  0  0  0  0  0  0  0  0  0  0  0
    2.5919    2.2281   -2.0115 H   0  0  0  0  0  0  0  0  0  0  0  0
    2.8961    3.3413   -0.6793 H   0  0  0  0  0  0  0  0  0  0  0  0
   -3.0679   -2.2571    0.0577 H   0  0  0  0  0  0  0  0  0  0  0  0
   -0.9986    2.6989   -0.2031 H   0  0  0  0  0  0  0  0  0  0  0  0
   -1.4604   -4.2585    0.8687 H   0  0  0  0  0  0  0  0  0  0  0  0
   -1.4249   -4.2474   -0.9120 H   0  0  0  0  0  0  0  0  0  0  0  0
   -0.0260   -4.8353    0.0039 H   0  0  0  0  0  0  0  0  0  0  0  0
   -4.9990   -0.2638    0.0027 H   0  0  0  0  0  0  0  0  0  0  0  0
   -3.2492    3.6544   -0.2413 H   0  0  0  0  0  0  0  0  0  0  0  0
   -5.2462    2.2074   -0.1346 H   0  0  0  0  0  0  0  0  0  0  0  0
  1  8  2  0  0  0  0
  2  9  2  0  0  0  0
  2 15  1  0  0  0  0
  3 13  1  0  0  0  0
  3 16  1  0  0  0  0
  3 32  1  0  0  0  0
  4  5  1  0  0  0  0
  4  8  1  0  0  0  0
  4 11  1  0  0  0  0
  4 12  1  0  0  0  0
  5  6  1  0  0  0  0
  5 22  1  0  0  0  0
  5 23  1  0  0  0  0
  6  9  1  0  0  0  0
  6 24  1  0  0  0  0
  6 25  1  0  0  0  0
  7  8  1  0  0  0  0
  7  9  1  0  0  0  0
  7 10  2  0  0  0  0
 10 13  1  0  0  0  0
 10 14  1  0  0  0  0
 11 26  1  0  0  0  0
 11 27  1  0  0  0  0
 11 28  1  0  0  0  0
 12 29  1  0  0  0  0
 12 30  1  0  0  0  0
 12 31  1  0  0  0  0
 13 15  2  0  0  0  0
 14 16  1  0  0  0  0
 14 17  2  0  0  0  0
 15 18  1  0  0  0  0
 16 19  2  0  0  0  0
 17 20  1  0  0  0  0
 17 33  1  0  0  0  0
 18 34  1  0  0  0  0
 18 35  1  0  0  0  0
 18 36  1  0  0  0  0
 19 21  1  0  0  0  0
 19 37  1  0  0  0  0
 20 21  2  0  0  0  0
 20 38  1  0  0  0  0
 21 39  1  0  0  0  0
M  END
> <PUBCHEM_COMPOUND_CID>
5491684

> <PUBCHEM_CONFORMER_RMSD>
0.6

> <PUBCHEM_CONFORMER_DIVERSEORDER>
1
2

> <PUBCHEM_MMFF94_PARTIAL_CHARGES>
21
1 -0.57
13 -0.15
15 0.17
16 -0.15
17 -0.15
18 0.14
19 -0.15
2 -0.62
20 -0.15
21 -0.15
3 0.03
32 0.27
33 0.15
37 0.15
38 0.15
39 0.15
4 0.06
6 0.14
7 0.09
8 0.42
9 0.17

> <PUBCHEM_EFFECTIVE_ROTOR_COUNT>
0.6

> <PUBCHEM_PHARMACOPHORE_FEATURES>
9
1 1 acceptor
1 2 acceptor
1 3 cation
1 3 donor
3 4 11 12 hydrophobe
5 3 10 13 14 16 rings
6 14 16 17 19 20 21 rings
6 2 7 9 10 13 15 rings
6 4 5 6 7 8 9 rings

> <PUBCHEM_HEAVY_ATOM_COUNT>
21

> <PUBCHEM_ATOM_DEF_STEREO_COUNT>
0

> <PUBCHEM_ATOM_UDEF_STEREO_COUNT>
0

> <PUBCHEM_BOND_DEF_STEREO_COUNT>
0

> <PUBCHEM_BOND_UDEF_STEREO_COUNT>
0

> <PUBCHEM_ISOTOPIC_ATOM_COUNT>
0

> <PUBCHEM_COMPONENT_COUNT>
1

> <PUBCHEM_CACTVS_TAUTO_COUNT>
5

> <PUBCHEM_CONFORMER_ID>
0053CBE400000001

> <PUBCHEM_MMFF94_ENERGY>
57.1372

> <PUBCHEM_FEATURE_SELFOVERLAP>
45.876

> <PUBCHEM_SHAPE_FINGERPRINT>
10319926 262 17982990522861599824
10411042 1 16897646784945386507
10498660 4 18336264634518952341
10608611 8 18411698794142135216
10616163 171 18193280917017142540
10693767 8 17698717013310227135
10967382 1 18122626054755181459
1100329 8 18265892463015895554
11370993 70 18410848850205473068
11725454 13 17058625569271235112
12173636 292 18411133654045316309
12403260 363 18337660954045831207
12553582 1 17400928986167689066
12730499 353 18337397024701348449
12788726 201 17683526512974356898
13140716 1 18339358544016505529
138480 1 17617940231781121719
13878862 14 17687171003764661341
14178342 30 18192978543014412938
14790565 3 18339655490173031921
15042514 8 18120374517088034507
15196674 1 18411136922230552553
15536298 74 18342455906995506892
16945 1 18195244640383927050
17134986 127 18336266760406113236
18186145 218 18272381849208758672
19591789 44 18411141320593802147
20510252 161 18270403909563482737
20739085 24 16829274770583442681
21524375 3 18333730191360119771
22149856 69 18338531747014791281
2334 1 18411700984585765352
23366157 5 17970632883278639211
23419403 2 15894412801352903730
23557571 272 18055087698473458580
23558518 356 17973439103282510768
23559900 14 18198055872530938442
238 59 17611991955753305973
25 1 18337953376846518255
2748010 2 18410581664563584390
3091708 16 9338211070200497659
335352 9 18266741281739087422
350125 39 18409454652275990849
352729 6 18411420630643524387
394222 165 18113900420940432050
474 4 18261396615624561445
5104073 3 18337674118479056625
6138700 20 18050572833648900838
633830 44 18201156551261259157
7097593 13 18043224973480723354
7364860 26 18123469371715886255
7808743 9 18192715763972968724
81228 2 17834949046706679371
8272917 22 18124882257379778669
84936 182 18200588073447583609
9709674 26 18270965777269768734
9981440 41 18408597050813482963

> <PUBCHEM_SHAPE_MULTIPOLES>
416.34
7.06
3.82
0.79
1.09
2.86
0
-5.02
-0.31
0.56
-0.13
-0.58
-0.31
0.12

> <PUBCHEM_SHAPE_SELFOVERLAP>
936.379

> <PUBCHEM_SHAPE_VOLUME>
221.6

> <PUBCHEM_COORDINATE_TYPE>
2
5
10

$$$$
