56675512
  -OEChem-03052615073D

 41 42  0     0  0  0  0  0  0999 V2000
   -0.1774    2.3484    0.9744 O   0  0  0  0  0  0  0  0  0  0  0  0
    0.1743   -1.0512    2.5348 O   0  0  0  0  0  0  0  0  0  0  0  0
    0.6186    0.2749    0.0559 C   0  0  0  0  0  0  0  0  0  0  0  0
   -0.6283   -0.3952    0.3663 C   0  0  0  0  0  0  0  0  0  0  0  0
    2.8477    0.1826   -0.8711 C   0  0  0  0  0  0  0  0  0  0  0  0
    1.6403   -0.4445   -0.5639 C   0  0  0  0  0  0  0  0  0  0  0  0
   -2.8610   -1.0345   -0.2997 C   0  0  0  0  0  0  0  0  0  0  0  0
   -1.6534   -0.3948   -0.5796 C   0  0  0  0  0  0  0  0  0  0  0  0
    0.8044    1.6216    0.3684 C   0  0  0  0  0  0  0  0  0  0  0  0
   -0.8108   -1.0355    1.5921 C   0  0  0  0  0  0  0  0  0  0  0  0
    3.0335    1.5294   -0.5587 C   0  0  0  0  0  0  0  0  0  0  0  0
    3.9410   -0.5855   -1.5335 C   0  0  0  0  0  0  0  0  0  0  0  0
    2.0119    2.2489    0.0611 C   0  0  0  0  0  0  0  0  0  0  0  0
   -3.9579   -1.0345   -1.3101 C   0  0  0  0  0  0  0  0  0  0  0  0
   -3.0434   -1.6748    0.9261 C   0  0  0  0  0  0  0  0  0  0  0  0
   -2.0183   -1.6754    1.8719 C   0  0  0  0  0  0  0  0  0  0  0  0
    4.8752   -1.2467   -0.5534 C   0  0  0  0  0  0  0  0  0  0  0  0
   -4.8896    0.1414   -1.1695 C   0  0  0  0  0  0  0  0  0  0  0  0
    0.1096    3.7170    1.2524 C   0  0  0  0  0  0  0  0  0  0  0  0
    5.0487   -2.5696   -0.4555 C   0  0  0  0  0  0  0  0  0  0  0  0
   -5.0650    1.0781   -2.1084 C   0  0  0  0  0  0  0  0  0  0  0  0
    1.5007   -1.4958   -0.8085 H   0  0  0  0  0  0  0  0  0  0  0  0
   -1.5165    0.1047   -1.5369 H   0  0  0  0  0  0  0  0  0  0  0  0
    4.5293    0.0833   -2.1754 H   0  0  0  0  0  0  0  0  0  0  0  0
    3.5070   -1.3268   -2.2176 H   0  0  0  0  0  0  0  0  0  0  0  0
    3.9704    2.0287   -0.7919 H   0  0  0  0  0  0  0  0  0  0  0  0
    2.2315    3.2895    0.2723 H   0  0  0  0  0  0  0  0  0  0  0  0
   -4.5473   -1.9562   -1.2191 H   0  0  0  0  0  0  0  0  0  0  0  0
   -3.5275   -1.0709   -2.3197 H   0  0  0  0  0  0  0  0  0  0  0  0
   -3.9797   -2.1758    1.1573 H   0  0  0  0  0  0  0  0  0  0  0  0
   -2.1750   -2.1780    2.8226 H   0  0  0  0  0  0  0  0  0  0  0  0
    5.4526   -0.5985    0.1015 H   0  0  0  0  0  0  0  0  0  0  0  0
   -5.4636    0.2166   -0.2490 H   0  0  0  0  0  0  0  0  0  0  0  0
   -0.1380   -1.5417    3.3143 H   0  0  0  0  0  0  0  0  0  0  0  0
   -0.7790    4.1398    1.7330 H   0  0  0  0  0  0  0  0  0  0  0  0
    0.2744    4.2910    0.3341 H   0  0  0  0  0  0  0  0  0  0  0  0
    0.9338    3.8212    1.9663 H   0  0  0  0  0  0  0  0  0  0  0  0
    5.7442   -2.9805    0.2680 H   0  0  0  0  0  0  0  0  0  0  0  0
    4.5039   -3.2609   -1.0888 H   0  0  0  0  0  0  0  0  0  0  0  0
   -5.7586    1.8958   -1.9460 H   0  0  0  0  0  0  0  0  0  0  0  0
   -4.5237    1.0475   -3.0475 H   0  0  0  0  0  0  0  0  0  0  0  0
  1  9  1  0  0  0  0
  1 19  1  0  0  0  0
  2 10  1  0  0  0  0
  2 34  1  0  0  0  0
  3  4  1  0  0  0  0
  3  6  1  0  0  0  0
  3  9  2  0  0  0  0
  4  8  1  0  0  0  0
  4 10  2  0  0  0  0
  5  6  2  0  0  0  0
  5 11  1  0  0  0  0
  5 12  1  0  0  0  0
  6 22  1  0  0  0  0
  7  8  2  0  0  0  0
  7 14  1  0  0  0  0
  7 15  1  0  0  0  0
  8 23  1  0  0  0  0
  9 13  1  0  0  0  0
 10 16  1  0  0  0  0
 11 13  2  0  0  0  0
 11 26  1  0  0  0  0
 12 17  1  0  0  0  0
 12 24  1  0  0  0  0
 12 25  1  0  0  0  0
 13 27  1  0  0  0  0
 14 18  1  0  0  0  0
 14 28  1  0  0  0  0
 14 29  1  0  0  0  0
 15 16  2  0  0  0  0
 15 30  1  0  0  0  0
 16 31  1  0  0  0  0
 17 20  2  0  0  0  0
 17 32  1  0  0  0  0
 18 21  2  0  0  0  0
 18 33  1  0  0  0  0
 19 35  1  0  0  0  0
 19 36  1  0  0  0  0
 19 37  1  0  0  0  0
 20 38  1  0  0  0  0
 20 39  1  0  0  0  0
 21 40  1  0  0  0  0
 21 41  1  0  0  0  0
M  END
> <PUBCHEM_COMPOUND_CID>
56675512

> <PUBCHEM_CONFORMER_RMSD>
0.8

> <PUBCHEM_CONFORMER_DIVERSEORDER>
1
47
44
18
11
34
37
45
25
19
31
32
39
12
28
46
33
43
41
30
20
38
36
6
22
24
40
3
9
8
2
42
23
5
15
29
21
17
35
13
16
7
10
26
14
27
4

> <PUBCHEM_MMFF94_PARTIAL_CHARGES>
32
1 -0.36
10 0.08
11 -0.15
12 0.28
13 -0.15
14 0.28
15 -0.15
16 -0.15
17 -0.29
18 -0.29
19 0.28
2 -0.53
20 -0.3
21 -0.3
22 0.15
23 0.15
26 0.15
27 0.15
30 0.15
31 0.15
32 0.15
33 0.15
34 0.45
38 0.15
39 0.15
40 0.15
41 0.15
5 -0.14
6 -0.15
7 -0.14
8 -0.15
9 0.08

> <PUBCHEM_EFFECTIVE_ROTOR_COUNT>
6

> <PUBCHEM_PHARMACOPHORE_FEATURES>
6
1 1 acceptor
1 2 donor
1 20 hydrophobe
1 21 hydrophobe
6 3 5 6 9 11 13 rings
6 4 7 8 10 15 16 rings

> <PUBCHEM_HEAVY_ATOM_COUNT>
21

> <PUBCHEM_ATOM_DEF_STEREO_COUNT>
0

> <PUBCHEM_ATOM_UDEF_STEREO_COUNT>
0

> <PUBCHEM_BOND_DEF_STEREO_COUNT>
0

> <PUBCHEM_BOND_UDEF_STEREO_COUNT>
0

> <PUBCHEM_ISOTOPIC_ATOM_COUNT>
0

> <PUBCHEM_COMPONENT_COUNT>
1

> <PUBCHEM_CACTVS_TAUTO_COUNT>
3

> <PUBCHEM_CONFORMER_ID>
0360CCB800000001

> <PUBCHEM_MMFF94_ENERGY>
64.2596

> <PUBCHEM_FEATURE_SELFOVERLAP>
30.446

> <PUBCHEM_SHAPE_FINGERPRINT>
10610426 29 16917067758729991874
10670039 82 17023173886896779543
11582403 64 17117715651793520657
11796584 16 17821729438407913018
1200032 147 16228853577273784693
12160290 23 17623608300506878816
12363563 72 18341067250170273542
12553582 1 18128843930934862646
12788726 201 18194677064550372178
13083527 12 13110666294644015459
13134695 92 18201161060723906940
13294875 104 17971163006754663793
13464514 151 18113893823971105767
13544592 145 18040715874501995598
13911987 19 17833853924957954076
13965767 371 15720766131362567821
14178342 30 12174805977794102183
14251740 79 18189334567731967197
14508225 48 18340493279288962652
15099037 37 12247683760024242759
17349148 13 16988572324231488407
17980427 23 16271655567239472433
18186145 218 18041282161697584235
18222031 100 17775574117885229270
200 152 17918279748532564039
20626108 58 17631999953169044311
20645477 70 18272378615219873526
20671657 53 17988647431974469349
21618674 53 14490468729275663357
221357 26 18341041983072960749
23526113 38 18336826523393717057
23536364 44 18193269698467945253
23559900 14 18040438828269374958
2637199 183 16153423935195709429
3009799 131 18408598141935772102
3027735 51 18055363439600906694
32948 21 17967250888474576398
5161694 15 18259987114663521135
5281201 14 18266178508037431485
5283173 99 18335978680023487204
57035037 87 16701720662725652929
57527295 17 18334008414999426295
59682541 52 18339908356309066839
6049 1 18045227295697224633
621550 34 17329435450548410683
621550 5 17173810458793933035
633830 44 17821998865526273735
7399639 24 17258777551913103625
77492 1 16700360691306201243

> <PUBCHEM_SHAPE_MULTIPOLES>
420.43
9.44
2.94
1.89
0.2
2.48
-0.51
-4.64
6.95
-1.71
-1.25
1.6
-0.28
1.41

> <PUBCHEM_SHAPE_SELFOVERLAP>
891.553

> <PUBCHEM_SHAPE_VOLUME>
235.7

> <PUBCHEM_COORDINATE_TYPE>
2
5
10

$$$$
