56683358
  -OEChem-03052615053D

 23 24  0     0  0  0  0  0  0999 V2000
    1.9980    1.7930   -0.1344 O   0  0  0  0  0  0  0  0  0  0  0  0
   -2.8860   -0.7537    0.3137 O   0  0  0  0  0  0  0  0  0  0  0  0
   -0.6166   -2.2684    0.2366 O   0  0  0  0  0  0  0  0  0  0  0  0
   -2.7316    2.0029    0.1692 O   0  0  0  0  0  0  0  0  0  0  0  0
    2.0137   -2.2823    0.0621 O   0  0  0  0  0  0  0  0  0  0  0  0
    0.7333   -0.2760    0.0496 C   0  0  0  0  0  0  0  0  0  0  0  0
    0.8072    1.1170   -0.0228 C   0  0  0  0  0  0  0  0  0  0  0  0
   -0.5052   -0.9116    0.1627 C   0  0  0  0  0  0  0  0  0  0  0  0
   -1.6702   -0.1444    0.2025 C   0  0  0  0  0  0  0  0  0  0  0  0
   -0.3594    1.8807    0.0177 C   0  0  0  0  0  0  0  0  0  0  0  0
   -1.5977    1.2479    0.1302 C   0  0  0  0  0  0  0  0  0  0  0  0
    1.9805   -1.0609    0.0050 C   0  0  0  0  0  0  0  0  0  0  0  0
    3.2305   -0.2863   -0.1165 C   0  0  0  0  0  0  0  0  0  0  0  0
    3.1496    1.0454   -0.1754 C   0  0  0  0  0  0  0  0  0  0  0  0
   -3.5462   -1.1034   -0.9002 C   0  0  0  0  0  0  0  0  0  0  0  0
   -0.2978    2.9646   -0.0389 H   0  0  0  0  0  0  0  0  0  0  0  0
    4.1771   -0.8100   -0.1545 H   0  0  0  0  0  0  0  0  0  0  0  0
    4.0153    1.6872   -0.2643 H   0  0  0  0  0  0  0  0  0  0  0  0
    0.2570   -2.6865    0.1962 H   0  0  0  0  0  0  0  0  0  0  0  0
   -2.4893    2.9428    0.1066 H   0  0  0  0  0  0  0  0  0  0  0  0
   -4.4968   -1.5812   -0.6476 H   0  0  0  0  0  0  0  0  0  0  0  0
   -2.9429   -1.8104   -1.4783 H   0  0  0  0  0  0  0  0  0  0  0  0
   -3.7525   -0.2102   -1.4982 H   0  0  0  0  0  0  0  0  0  0  0  0
  1  7  1  0  0  0  0
  1 14  1  0  0  0  0
  2  9  1  0  0  0  0
  2 15  1  0  0  0  0
  3  8  1  0  0  0  0
  3 19  1  0  0  0  0
  4 11  1  0  0  0  0
  4 20  1  0  0  0  0
  5 12  2  0  0  0  0
  6  7  2  0  0  0  0
  6  8  1  0  0  0  0
  6 12  1  0  0  0  0
  7 10  1  0  0  0  0
  8  9  2  0  0  0  0
  9 11  1  0  0  0  0
 10 11  2  0  0  0  0
 10 16  1  0  0  0  0
 12 13  1  0  0  0  0
 13 14  2  0  0  0  0
 13 17  1  0  0  0  0
 14 18  1  0  0  0  0
 15 21  1  0  0  0  0
 15 22  1  0  0  0  0
 15 23  1  0  0  0  0
M  END
> <PUBCHEM_COMPOUND_CID>
56683358

> <PUBCHEM_CONFORMER_RMSD>
0.4

> <PUBCHEM_CONFORMER_DIVERSEORDER>
1
3
2

> <PUBCHEM_MMFF94_PARTIAL_CHARGES>
20
1 -0.16
10 -0.15
11 0.08
12 0.47
13 -0.14
14 -0.07
15 0.28
16 0.15
17 0.15
18 0.15
19 0.45
2 -0.36
20 0.45
3 -0.53
4 -0.53
5 -0.57
6 0.09
7 0.08
8 0.08
9 0.08

> <PUBCHEM_EFFECTIVE_ROTOR_COUNT>
1

> <PUBCHEM_PHARMACOPHORE_FEATURES>
7
1 1 acceptor
1 2 acceptor
1 3 donor
1 4 donor
1 5 acceptor
6 1 6 7 12 13 14 rings
6 6 7 8 9 10 11 rings

> <PUBCHEM_HEAVY_ATOM_COUNT>
15

> <PUBCHEM_ATOM_DEF_STEREO_COUNT>
0

> <PUBCHEM_ATOM_UDEF_STEREO_COUNT>
0

> <PUBCHEM_BOND_DEF_STEREO_COUNT>
0

> <PUBCHEM_BOND_UDEF_STEREO_COUNT>
0

> <PUBCHEM_ISOTOPIC_ATOM_COUNT>
0

> <PUBCHEM_COMPONENT_COUNT>
1

> <PUBCHEM_CACTVS_TAUTO_COUNT>
12

> <PUBCHEM_CONFORMER_ID>
0360EB5E00000001

> <PUBCHEM_MMFF94_ENERGY>
52.8568

> <PUBCHEM_FEATURE_SELFOVERLAP>
35.55

> <PUBCHEM_SHAPE_FINGERPRINT>
10967382 1 18337955721887956376
11132069 177 18340483348933664168
11206711 2 18408608049834460933
11471102 20 18337667624124442479
13140716 1 17906174305841133848
13380535 76 18336825407018841442
13897977 150 18337671897501169109
14144814 61 18409451392511857936
14325111 11 18410577262333155096
14576447 43 17912910962667954407
15442244 35 18194682553581730306
15536298 74 18343021056356967778
15775835 57 18263654978158778956
16945 1 18337678636341552472
17990270 104 18338519638483481802
193761 8 18266178322852683857
200 152 18272641377044875437
20201158 50 18335982059824690418
20510252 161 18272655666164257760
20588541 1 18264773331676025355
21267235 1 18410865360086217118
21501502 16 18410575041782107680
2334 1 18410295782939859073
23388829 49 18340484564303809957
23402539 116 18341320188735208782
23402655 69 18412257337896896141
23463225 33 18335985259759760400
23552423 10 18334861575866112440
23559900 14 18270690754204374926
2748010 2 18337394833429237892
353137 74 18335413603844307081
528886 8 18337951169207038928
53812653 166 18341892953063701128
57096353 35 18338520845105580916
7364860 26 18342459184593545930
7832392 63 18268432321684687721

> <PUBCHEM_SHAPE_MULTIPOLES>
279.35
5.08
2.33
0.66
0.64
0.09
-0.05
0.38
-0.74
0.11
0.07
0.2
0.05
-0.33

> <PUBCHEM_SHAPE_SELFOVERLAP>
612.954

> <PUBCHEM_SHAPE_VOLUME>
150.6

> <PUBCHEM_COORDINATE_TYPE>
2
5
10

$$$$
