57507828
  -OEChem-03052615063D

 32 31  0     1  0  0  0  0  0999 V2000
   -3.3452    1.0186   -0.9584 O   0  0  0  0  0  0  0  0  0  0  0  0
    3.1978   -1.5229   -0.8955 O   0  0  0  0  0  0  0  0  0  0  0  0
    0.2048    0.3065    0.2139 C   0  0  0  0  0  0  0  0  0  0  0  0
    1.5565    0.8981   -0.2083 C   0  0  0  0  0  0  0  0  0  0  0  0
   -0.9842    0.9059   -0.5462 C   0  0  0  0  0  0  0  0  0  0  0  0
    2.7892    0.3816    0.5625 C   0  0  1  0  0  0  0  0  0  0  0  0
   -2.3745    0.3840   -0.1080 C   0  0  1  0  0  0  0  0  0  0  0  0
    2.9819   -1.1366    0.4543 C   0  0  0  0  0  0  0  0  0  0  0  0
    4.0392    1.1140    0.0585 C   0  0  0  0  0  0  0  0  0  0  0  0
   -2.7071    0.8085    1.3290 C   0  0  0  0  0  0  0  0  0  0  0  0
   -2.4986   -1.0989   -0.3811 C   0  0  0  0  0  0  0  0  0  0  0  0
   -2.8599   -2.0588    0.4792 C   0  0  0  0  0  0  0  0  0  0  0  0
    0.0806    0.4705    1.2898 H   0  0  0  0  0  0  0  0  0  0  0  0
    0.2195   -0.7762    0.0525 H   0  0  0  0  0  0  0  0  0  0  0  0
    1.6957    0.7183   -1.2823 H   0  0  0  0  0  0  0  0  0  0  0  0
    1.5047    1.9883   -0.0870 H   0  0  0  0  0  0  0  0  0  0  0  0
   -0.8505    0.7268   -1.6224 H   0  0  0  0  0  0  0  0  0  0  0  0
   -0.9647    1.9993   -0.4402 H   0  0  0  0  0  0  0  0  0  0  0  0
    2.6564    0.6276    1.6238 H   0  0  0  0  0  0  0  0  0  0  0  0
    2.1150   -1.6789    0.8428 H   0  0  0  0  0  0  0  0  0  0  0  0
    3.8556   -1.4458    1.0387 H   0  0  0  0  0  0  0  0  0  0  0  0
    4.2066    0.9435   -1.0102 H   0  0  0  0  0  0  0  0  0  0  0  0
    3.9432    2.1939    0.2148 H   0  0  0  0  0  0  0  0  0  0  0  0
    4.9300    0.7789    0.6004 H   0  0  0  0  0  0  0  0  0  0  0  0
   -2.5981    1.8931    1.4473 H   0  0  0  0  0  0  0  0  0  0  0  0
   -2.0669    0.3204    2.0703 H   0  0  0  0  0  0  0  0  0  0  0  0
   -3.7522    0.5828    1.5731 H   0  0  0  0  0  0  0  0  0  0  0  0
   -2.2806   -1.4117   -1.4017 H   0  0  0  0  0  0  0  0  0  0  0  0
   -3.2703    1.9805   -0.8351 H   0  0  0  0  0  0  0  0  0  0  0  0
    3.3201   -2.4875   -0.9004 H   0  0  0  0  0  0  0  0  0  0  0  0
   -2.9160   -3.0910    0.1493 H   0  0  0  0  0  0  0  0  0  0  0  0
   -3.1046   -1.8526    1.5140 H   0  0  0  0  0  0  0  0  0  0  0  0
  1  7  1  0  0  0  0
  1 29  1  0  0  0  0
  2  8  1  0  0  0  0
  2 30  1  0  0  0  0
  3  4  1  0  0  0  0
  3  5  1  0  0  0  0
  3 13  1  0  0  0  0
  3 14  1  0  0  0  0
  4  6  1  0  0  0  0
  4 15  1  0  0  0  0
  4 16  1  0  0  0  0
  5  7  1  0  0  0  0
  5 17  1  0  0  0  0
  5 18  1  0  0  0  0
  6  8  1  0  0  0  0
  6  9  1  0  0  0  0
  6 19  1  0  0  0  0
  7 10  1  0  0  0  0
  7 11  1  0  0  0  0
  8 20  1  0  0  0  0
  8 21  1  0  0  0  0
  9 22  1  0  0  0  0
  9 23  1  0  0  0  0
  9 24  1  0  0  0  0
 10 25  1  0  0  0  0
 10 26  1  0  0  0  0
 10 27  1  0  0  0  0
 11 12  2  0  0  0  0
 11 28  1  0  0  0  0
 12 31  1  0  0  0  0
 12 32  1  0  0  0  0
M  END
> <PUBCHEM_COMPOUND_CID>
57507828

> <PUBCHEM_CONFORMER_RMSD>
0.8

> <PUBCHEM_CONFORMER_DIVERSEORDER>
1
396
29
590
719
184
345
405
26
298
262
152
641
531
39
610
408
105
557
31
443
418
4
535
375
107
329
603
534
272
631
92
595
264
11
482
43
538
116
386
607
210
500
667
200
24
55
71
377
45
669
14
146
493
177
492
357
44
616
120
158
463
266
275
684
401
426
179
358
516
216
470
300
462
93
533
129
453
702
56
598
140
454
328
254
112
258
173
461
9
551
61
271
522
241
665
317
508
235
353
180
297
316
716
712
252
536
629
49
559
207
321
318
383
705
103
627
369
604
382
188
33
221
427
523
495
203
40
691
50
380
494
700
62
289
281
110
15
312
394
674
169
499
197
13
638
137
548
325
334
471
37
48
692
3
138
362
106
224
8
213
176
41
635
714
20
189
119
68
84
72
47
335
126
249

> <PUBCHEM_MMFF94_PARTIAL_CHARGES>
11
1 -0.68
11 -0.29
12 -0.3
2 -0.68
28 0.15
29 0.4
30 0.4
31 0.15
32 0.15
7 0.42
8 0.28

> <PUBCHEM_EFFECTIVE_ROTOR_COUNT>
6

> <PUBCHEM_PHARMACOPHORE_FEATURES>
7
1 1 acceptor
1 1 donor
1 12 hydrophobe
1 2 acceptor
1 2 donor
1 9 hydrophobe
4 3 4 5 6 hydrophobe

> <PUBCHEM_HEAVY_ATOM_COUNT>
12

> <PUBCHEM_ATOM_DEF_STEREO_COUNT>
0

> <PUBCHEM_ATOM_UDEF_STEREO_COUNT>
2

> <PUBCHEM_BOND_DEF_STEREO_COUNT>
0

> <PUBCHEM_BOND_UDEF_STEREO_COUNT>
0

> <PUBCHEM_ISOTOPIC_ATOM_COUNT>
0

> <PUBCHEM_COMPONENT_COUNT>
1

> <PUBCHEM_CACTVS_TAUTO_COUNT>
1

> <PUBCHEM_CONFORMER_ID>
036D7FF400000001

> <PUBCHEM_MMFF94_ENERGY>
18.2659

> <PUBCHEM_FEATURE_SELFOVERLAP>
35.522

> <PUBCHEM_SHAPE_FINGERPRINT>
12500047 106 18336816541995287381
12932764 1 17967814912132716064
13296908 3 18335139786799598898
14144814 61 18202563973289056680
14325111 11 18409444799821571352
14445660 50 18413114969413782153
17834074 16 18413109480740905350
18186145 218 18409735028083926224
190213 19 18201717366694918792
19107657 162 18412826910331334310
20279233 1 18261105262270269852
20281407 28 18334012783112723316
20645477 56 18260259742414186693
20645477 70 18340760438822761790
21730867 7 18411979161655431108
22169311 21 18411409618415481472
22485316 2 18259696792296715160
23402539 116 17676757747995768292
3248919 1 18131346388875655120
93112 12 18334572421514438804

> <PUBCHEM_SHAPE_MULTIPOLES>
235.22
7.53
1.74
0.97
3.48
0.84
-0.11
0.64
-0.14
-0.42
0.04
-0.42
-0.08
0.33

> <PUBCHEM_SHAPE_SELFOVERLAP>
433.746

> <PUBCHEM_SHAPE_VOLUME>
149.3

> <PUBCHEM_COORDINATE_TYPE>
2
5
10

$$$$
