5969616
  -OEChem-03052615073D

 46 48  0     0  0  0  0  0  0999 V2000
    0.7284    2.1936   -2.0423 O   0  0  0  0  0  0  0  0  0  0  0  0
    0.6243   -3.3147   -0.9450 O   0  0  0  0  0  0  0  0  0  0  0  0
   -4.1712    1.9328    1.3356 O   0  0  0  0  0  0  0  0  0  0  0  0
   -6.5577    0.8967    0.3595 O   0  0  0  0  0  0  0  0  0  0  0  0
    5.0618    1.1287    1.1430 N   0  0  0  0  0  0  0  0  0  0  0  0
    1.6408   -2.1775    0.8104 N   0  0  0  0  0  0  0  0  0  0  0  0
    4.1505   -0.6578    0.1916 C   0  0  0  0  0  0  0  0  0  0  0  0
    3.4124    0.4885   -0.2161 C   0  0  0  0  0  0  0  0  0  0  0  0
    3.8915   -2.0568   -0.2044 C   0  0  0  0  0  0  0  0  0  0  0  0
    4.0047    1.5958    0.3949 C   0  0  0  0  0  0  0  0  0  0  0  0
    5.1581   -0.2321    1.0262 C   0  0  0  0  0  0  0  0  0  0  0  0
    2.9313   -2.8079    0.7325 C   0  0  0  0  0  0  0  0  0  0  0  0
    2.2940    0.6908   -1.0488 C   0  0  0  0  0  0  0  0  0  0  0  0
    3.5323    2.9006    0.2143 C   0  0  0  0  0  0  0  0  0  0  0  0
    1.8105    1.9904   -1.2388 C   0  0  0  0  0  0  0  0  0  0  0  0
    2.4217    3.0770   -0.6161 C   0  0  0  0  0  0  0  0  0  0  0  0
    0.5881   -2.4861   -0.0412 C   0  0  0  0  0  0  0  0  0  0  0  0
   -0.6312   -1.6840    0.2625 C   0  0  0  0  0  0  0  0  0  0  0  0
   -3.0104   -1.1371   -0.2409 C   0  0  0  0  0  0  0  0  0  0  0  0
   -1.7478   -1.8653   -0.4580 C   0  0  0  0  0  0  0  0  0  0  0  0
   -2.9909    0.0633    0.4502 C   0  0  0  0  0  0  0  0  0  0  0  0
   -4.1922   -1.6673   -0.7324 C   0  0  0  0  0  0  0  0  0  0  0  0
   -4.1861    0.7529    0.6554 C   0  0  0  0  0  0  0  0  0  0  0  0
   -5.3842    0.2321    0.1668 C   0  0  0  0  0  0  0  0  0  0  0  0
   -5.3873   -0.9780   -0.5270 C   0  0  0  0  0  0  0  0  0  0  0  0
   -3.9915    3.1214    0.5680 C   0  0  0  0  0  0  0  0  0  0  0  0
    3.4916   -2.0819   -1.2261 H   0  0  0  0  0  0  0  0  0  0  0  0
    4.8400   -2.6081   -0.2404 H   0  0  0  0  0  0  0  0  0  0  0  0
    2.8084   -3.8386    0.3824 H   0  0  0  0  0  0  0  0  0  0  0  0
    3.3364   -2.8403    1.7499 H   0  0  0  0  0  0  0  0  0  0  0  0
    5.9347   -0.7735    1.5484 H   0  0  0  0  0  0  0  0  0  0  0  0
    5.6773    1.7072    1.6979 H   0  0  0  0  0  0  0  0  0  0  0  0
    1.8183   -0.1508   -1.5439 H   0  0  0  0  0  0  0  0  0  0  0  0
    4.0074    3.7470    0.6987 H   0  0  0  0  0  0  0  0  0  0  0  0
    2.0340    4.0808   -0.7734 H   0  0  0  0  0  0  0  0  0  0  0  0
    1.5137   -1.4693    1.5278 H   0  0  0  0  0  0  0  0  0  0  0  0
   -0.5679   -0.9866    1.0896 H   0  0  0  0  0  0  0  0  0  0  0  0
    0.4251    1.3358   -2.3860 H   0  0  0  0  0  0  0  0  0  0  0  0
   -1.7674   -2.5981   -1.2615 H   0  0  0  0  0  0  0  0  0  0  0  0
   -2.0760    0.5109    0.8268 H   0  0  0  0  0  0  0  0  0  0  0  0
   -4.2111   -2.6094   -1.2738 H   0  0  0  0  0  0  0  0  0  0  0  0
   -6.3175   -1.3889   -0.9100 H   0  0  0  0  0  0  0  0  0  0  0  0
   -6.3792    1.6916    0.8908 H   0  0  0  0  0  0  0  0  0  0  0  0
   -4.7814    3.2228   -0.1830 H   0  0  0  0  0  0  0  0  0  0  0  0
   -3.0106    3.1167    0.0821 H   0  0  0  0  0  0  0  0  0  0  0  0
   -4.0417    3.9778    1.2459 H   0  0  0  0  0  0  0  0  0  0  0  0
  1 15  1  0  0  0  0
  1 38  1  0  0  0  0
  2 17  2  0  0  0  0
  3 23  1  0  0  0  0
  3 26  1  0  0  0  0
  4 24  1  0  0  0  0
  4 43  1  0  0  0  0
  5 10  1  0  0  0  0
  5 11  1  0  0  0  0
  5 32  1  0  0  0  0
  6 12  1  0  0  0  0
  6 17  1  0  0  0  0
  6 36  1  0  0  0  0
  7  8  1  0  0  0  0
  7  9  1  0  0  0  0
  7 11  2  0  0  0  0
  8 10  2  0  0  0  0
  8 13  1  0  0  0  0
  9 12  1  0  0  0  0
  9 27  1  0  0  0  0
  9 28  1  0  0  0  0
 10 14  1  0  0  0  0
 11 31  1  0  0  0  0
 12 29  1  0  0  0  0
 12 30  1  0  0  0  0
 13 15  2  0  0  0  0
 13 33  1  0  0  0  0
 14 16  2  0  0  0  0
 14 34  1  0  0  0  0
 15 16  1  0  0  0  0
 16 35  1  0  0  0  0
 17 18  1  0  0  0  0
 18 20  2  0  0  0  0
 18 37  1  0  0  0  0
 19 20  1  0  0  0  0
 19 21  2  0  0  0  0
 19 22  1  0  0  0  0
 20 39  1  0  0  0  0
 21 23  1  0  0  0  0
 21 40  1  0  0  0  0
 22 25  2  0  0  0  0
 22 41  1  0  0  0  0
 23 24  2  0  0  0  0
 24 25  1  0  0  0  0
 25 42  1  0  0  0  0
 26 44  1  0  0  0  0
 26 45  1  0  0  0  0
 26 46  1  0  0  0  0
M  END
> <PUBCHEM_COMPOUND_CID>
5969616

> <PUBCHEM_CONFORMER_RMSD>
0.8

> <PUBCHEM_CONFORMER_DIVERSEORDER>
1
31
150
72
104
18
234
48
121
207
30
52
12
134
217
184
193
181
132
76
33
122
113
226
97
205
14
24
222
197
45
54
40
155
129
200
27
145
232
93
216
103
61
15
147
58
26
119
195
172
62
47
138
227
50
28
126
130
154
101
186
86
98
118
46
70
131
69
178
65
144
125
63
80
68
51
82
109
206
57
220
146
182
156
6
117
75
96
196
17
123
218
78
175
214
66
159
73
164
112
223
111
170
7
107
19
91
235
204
115
67
16
210
139
95
208
64
90
85
192
10
219
173
94
88
5
202
92
124
133
189
8
228
110
89
25
201
38
137
151
179
174
120
20
84
211
171
198
39
102
187
114
176
83
143
21
191
22
100
60
212
225
183
180
3
213
99
23
87
36
224
209
194
160
49
29
77
221
11
135
177
190
4
229
44
168
215
153
152
42
167
233
136
106
59
34
71
13
162
185
158
9
2
157
79
199
105
43
203
35
116
41
140
231
56
163
128
74
169
53
161
149
108
142
81
55
32
127
230
148
37
141
166
188
165

> <PUBCHEM_MMFF94_PARTIAL_CHARGES>
38
1 -0.53
10 -0.15
11 -0.3
12 0.3
13 -0.15
14 -0.15
15 0.08
16 -0.15
17 0.62
18 -0.14
19 0.03
2 -0.57
20 -0.18
21 -0.15
22 -0.15
23 0.08
24 0.08
25 -0.15
26 0.28
3 -0.36
31 0.15
32 0.27
33 0.15
34 0.15
35 0.15
36 0.37
37 0.15
38 0.45
39 0.15
4 -0.53
40 0.15
41 0.15
42 0.15
43 0.45
5 0.03
6 -0.73
7 -0.18
9 0.18

> <PUBCHEM_EFFECTIVE_ROTOR_COUNT>
7

> <PUBCHEM_PHARMACOPHORE_FEATURES>
10
1 1 donor
1 2 acceptor
1 3 acceptor
1 4 donor
1 5 cation
1 5 donor
1 6 donor
5 5 7 8 10 11 rings
6 19 21 22 23 24 25 rings
6 8 10 13 14 15 16 rings

> <PUBCHEM_HEAVY_ATOM_COUNT>
26

> <PUBCHEM_ATOM_DEF_STEREO_COUNT>
0

> <PUBCHEM_ATOM_UDEF_STEREO_COUNT>
0

> <PUBCHEM_BOND_DEF_STEREO_COUNT>
1

> <PUBCHEM_BOND_UDEF_STEREO_COUNT>
0

> <PUBCHEM_ISOTOPIC_ATOM_COUNT>
0

> <PUBCHEM_COMPONENT_COUNT>
1

> <PUBCHEM_CACTVS_TAUTO_COUNT>
36

> <PUBCHEM_CONFORMER_ID>
005B16D000000001

> <PUBCHEM_MMFF94_ENERGY>
62.4034

> <PUBCHEM_FEATURE_SELFOVERLAP>
50.839

> <PUBCHEM_SHAPE_FINGERPRINT>
10483366 6 18188794816051810110
10688039 33 17313660452287065118
10708813 3 18411706448016592896
11513181 2 18131636685953115238
12107183 9 17980483360611928817
12422481 6 18118385277515184434
12467345 10 18342174449203726017
12633257 1 17313383465287752546
12925494 130 18193838133675306545
12978246 48 18410293631325066481
13075007 39 17313964020396198025
14251764 38 18411986892047853305
14394314 77 18343305856035025049
15001296 14 18409447024746649161
15420108 30 18126547128987047754
16112460 7 18262797492871786616
17810953 82 18410013251511950446
17818456 19 18340487871323256308
17844677 252 18341337704050412571
20511986 3 18201424917923844573
20715895 44 18412824677153899875
21033648 144 18260539074049151719
21298829 104 18412261744122086416
245318 6 17970640789980973021
338550 245 18408326570515764612
474 4 18334293197169578787
508706 21 17313668136099887725
513532 50 18060429001966715094
6328613 192 18190748733834755532
6371009 1 18340194267733532341
653340 110 18267298733945128104
9981440 41 18338802316362863339

> <PUBCHEM_SHAPE_MULTIPOLES>
501.63
13.65
4.07
1.15
12.14
0.52
0.21
3.89
-3.16
-1.84
0.28
-0.32
0.42
-1.66

> <PUBCHEM_SHAPE_SELFOVERLAP>
1085.826

> <PUBCHEM_SHAPE_VOLUME>
275.4

> <PUBCHEM_COORDINATE_TYPE>
2
5
10

$$$$
