6443815
  -OEChem-02172602313D

 52 51  0     0  0  0  0  0  0999 V2000
   -1.6623    2.2203   -2.5051 O   0  0  0  0  0  0  0  0  0  0  0  0
   -3.2700    2.7111   -0.9760 O   0  0  0  0  0  0  0  0  0  0  0  0
    1.6186    2.3112    1.1580 C   0  0  0  0  0  0  0  0  0  0  0  0
    0.1022    2.1793    1.3301 C   0  0  0  0  0  0  0  0  0  0  0  0
    2.0889    2.0024   -0.2664 C   0  0  0  0  0  0  0  0  0  0  0  0
   -0.3182    2.4671    2.7718 C   0  0  0  0  0  0  0  0  0  0  0  0
    3.5660    2.1981   -0.4527 C   0  0  0  0  0  0  0  0  0  0  0  0
   -1.8189    2.3087    2.9567 C   0  0  0  0  0  0  0  0  0  0  0  0
    4.3929    1.2388   -0.8945 C   0  0  0  0  0  0  0  0  0  0  0  0
    3.9503   -0.1482   -1.2585 C   0  0  0  0  0  0  0  0  0  0  0  0
   -3.8490    0.0127   -0.4278 C   0  0  0  0  0  0  0  0  0  0  0  0
    4.1006   -1.0950   -0.1019 C   0  0  0  0  0  0  0  0  0  0  0  0
   -2.7450    0.3955   -1.4135 C   0  0  0  0  0  0  0  0  0  0  0  0
   -4.0634   -1.4944   -0.2689 C   0  0  0  0  0  0  0  0  0  0  0  0
    3.0896   -1.8256    0.3955 C   0  0  0  0  0  0  0  0  0  0  0  0
    1.6574   -1.8570   -0.0699 C   0  0  0  0  0  0  0  0  0  0  0  0
    1.1502   -3.1993   -0.5138 C   0  0  0  0  0  0  0  0  0  0  0  0
   -0.7342   -3.4812    1.1703 C   0  0  0  0  0  0  0  0  0  0  0  0
    0.1346   -3.8957    0.0216 C   0  0  0  0  0  0  0  0  0  0  0  0
   -2.6045    1.8866   -1.5892 C   0  0  0  0  0  0  0  0  0  0  0  0
   -2.8768   -2.1797    0.2587 C   0  0  0  0  0  0  0  0  0  0  0  0
   -1.9089   -2.7558    0.6755 C   0  0  0  0  0  0  0  0  0  0  0  0
    1.9240    3.3291    1.4324 H   0  0  0  0  0  0  0  0  0  0  0  0
    2.1222    1.6312    1.8571 H   0  0  0  0  0  0  0  0  0  0  0  0
   -0.4060    2.8740    0.6505 H   0  0  0  0  0  0  0  0  0  0  0  0
   -0.2106    1.1659    1.0504 H   0  0  0  0  0  0  0  0  0  0  0  0
    1.7421    1.0053   -0.5327 H   0  0  0  0  0  0  0  0  0  0  0  0
    1.5808    2.6876   -0.9575 H   0  0  0  0  0  0  0  0  0  0  0  0
    0.2008    1.7843    3.4547 H   0  0  0  0  0  0  0  0  0  0  0  0
   -0.0263    3.4869    3.0479 H   0  0  0  0  0  0  0  0  0  0  0  0
    3.9772    3.1764   -0.2182 H   0  0  0  0  0  0  0  0  0  0  0  0
   -2.1365    1.2872    2.7240 H   0  0  0  0  0  0  0  0  0  0  0  0
   -2.0985    2.5238    3.9928 H   0  0  0  0  0  0  0  0  0  0  0  0
   -2.3690    2.9957    2.3059 H   0  0  0  0  0  0  0  0  0  0  0  0
    5.4517    1.4674   -0.9888 H   0  0  0  0  0  0  0  0  0  0  0  0
    2.9731   -0.1505   -1.7414 H   0  0  0  0  0  0  0  0  0  0  0  0
    4.6268   -0.5005   -2.0495 H   0  0  0  0  0  0  0  0  0  0  0  0
   -4.7949    0.4630   -0.7549 H   0  0  0  0  0  0  0  0  0  0  0  0
   -3.6236    0.4536    0.5524 H   0  0  0  0  0  0  0  0  0  0  0  0
    5.0864   -1.1965    0.3457 H   0  0  0  0  0  0  0  0  0  0  0  0
   -2.9657   -0.0397   -2.3946 H   0  0  0  0  0  0  0  0  0  0  0  0
   -1.7780    0.0146   -1.0672 H   0  0  0  0  0  0  0  0  0  0  0  0
   -4.3395   -1.9286   -1.2368 H   0  0  0  0  0  0  0  0  0  0  0  0
   -4.9098   -1.6633    0.4070 H   0  0  0  0  0  0  0  0  0  0  0  0
    3.3187   -2.4724    1.2413 H   0  0  0  0  0  0  0  0  0  0  0  0
    1.0482   -1.4564    0.7476 H   0  0  0  0  0  0  0  0  0  0  0  0
    1.4787   -1.1821   -0.9088 H   0  0  0  0  0  0  0  0  0  0  0  0
    1.6681   -3.6440   -1.3622 H   0  0  0  0  0  0  0  0  0  0  0  0
   -0.1817   -2.8705    1.8916 H   0  0  0  0  0  0  0  0  0  0  0  0
   -1.0477   -4.3789    1.7156 H   0  0  0  0  0  0  0  0  0  0  0  0
   -0.1017   -4.8590   -0.4278 H   0  0  0  0  0  0  0  0  0  0  0  0
   -1.5805    3.1923   -2.6090 H   0  0  0  0  0  0  0  0  0  0  0  0
  1 20  1  0  0  0  0
  1 52  1  0  0  0  0
  2 20  2  0  0  0  0
  3  4  1  0  0  0  0
  3  5  1  0  0  0  0
  3 23  1  0  0  0  0
  3 24  1  0  0  0  0
  4  6  1  0  0  0  0
  4 25  1  0  0  0  0
  4 26  1  0  0  0  0
  5  7  1  0  0  0  0
  5 27  1  0  0  0  0
  5 28  1  0  0  0  0
  6  8  1  0  0  0  0
  6 29  1  0  0  0  0
  6 30  1  0  0  0  0
  7  9  2  0  0  0  0
  7 31  1  0  0  0  0
  8 32  1  0  0  0  0
  8 33  1  0  0  0  0
  8 34  1  0  0  0  0
  9 10  1  0  0  0  0
  9 35  1  0  0  0  0
 10 12  1  0  0  0  0
 10 36  1  0  0  0  0
 10 37  1  0  0  0  0
 11 13  1  0  0  0  0
 11 14  1  0  0  0  0
 11 38  1  0  0  0  0
 11 39  1  0  0  0  0
 12 15  2  0  0  0  0
 12 40  1  0  0  0  0
 13 20  1  0  0  0  0
 13 41  1  0  0  0  0
 13 42  1  0  0  0  0
 14 21  1  0  0  0  0
 14 43  1  0  0  0  0
 14 44  1  0  0  0  0
 15 16  1  0  0  0  0
 15 45  1  0  0  0  0
 16 17  1  0  0  0  0
 16 46  1  0  0  0  0
 16 47  1  0  0  0  0
 17 19  2  0  0  0  0
 17 48  1  0  0  0  0
 18 19  1  0  0  0  0
 18 22  1  0  0  0  0
 18 49  1  0  0  0  0
 18 50  1  0  0  0  0
 19 51  1  0  0  0  0
 21 22  3  0  0  0  0
M  END
> <PUBCHEM_COMPOUND_CID>
6443815

> <PUBCHEM_CONFORMER_RMSD>
1.2

> <PUBCHEM_CONFORMER_DIVERSEORDER>
4
63
295
288
57
143
221
361
177
168
169
281
180
299
105
3
241
334
133
113
323
207
2
112
216
303
59
282
191
269
91
368
325
342
233
108
255
172
248
369
194
140
317
100
28
131
173
137
8
122
36
84
196
289
364
199
192
312
265
110
274
14
218
6
45
93
284
182
263
354
186
262
246
236
38
331
144
116
235
76
160
329
355
308
18
222
164
232
234
111
1
129
366
195
5
302
357
121
115
60
12
157
21
187
24
82
153
123
220
10
174
138
237
290
298
51
46
67
16
337
268
278
104
98
132
208
54
224
155
343
85
86
215
250
356
181
320
257
286
32
314
179
156
272
151
341
165
349
71
291
324
275
326
211
81
351
362
193
294
145
319
42
367
283
23
260
53
146
25
230
35
348
95
159
202
365
176
79
203
276
97
359
225
167
340
74
300
48
333
73
166
254
50
306
150
287
264
261
31
56
20
209
346
296
212
41
297
158
347
213
332
15
190
206
49
310
205
197
124
94
9
64
210
271
363
307
330
99
118
52
13
47
170
358
66
280
44
58
239
259
238
96
188
125
163
201
292
223
338
339
304
120
89
149
318
19
352
328
243
103
229
204
142
244
141
135
107
88
90
171
198
252
258
214
336
231
245
130
62
315
360
29
316
109
83
175
101
249
322
335
185
92
7
139
240
72
228
279
70
309
219
11
33
251
267
134
147
200
37
127
327
27
242
22
128
293
162
26
69
350
17
102
270
106
126
253
285
39
227
119
136
30
55
152
40
345
77
256
311
161
305
154
313
189
34
68
148
247
65
80
61
321
277
43
78
226
217
75
301
266
117
87
184
178
183
114
273
353
344

> <PUBCHEM_MMFF94_PARTIAL_CHARGES>
24
1 -0.65
10 0.28
12 -0.29
13 0.06
14 0.2
15 -0.29
16 0.28
17 -0.29
18 0.34
19 -0.29
2 -0.57
20 0.66
21 -0.2
22 -0.2
31 0.15
35 0.15
40 0.15
45 0.15
48 0.15
5 0.14
51 0.15
52 0.5
7 -0.29
9 -0.29

> <PUBCHEM_EFFECTIVE_ROTOR_COUNT>
12

> <PUBCHEM_PHARMACOPHORE_FEATURES>
6
1 1 acceptor
1 2 acceptor
1 8 hydrophobe
3 1 2 20 anion
4 11 13 14 21 hydrophobe
5 3 4 5 6 7 hydrophobe

> <PUBCHEM_HEAVY_ATOM_COUNT>
22

> <PUBCHEM_ATOM_DEF_STEREO_COUNT>
0

> <PUBCHEM_ATOM_UDEF_STEREO_COUNT>
0

> <PUBCHEM_BOND_DEF_STEREO_COUNT>
3

> <PUBCHEM_BOND_UDEF_STEREO_COUNT>
0

> <PUBCHEM_ISOTOPIC_ATOM_COUNT>
0

> <PUBCHEM_COMPONENT_COUNT>
1

> <PUBCHEM_CACTVS_TAUTO_COUNT>
1

> <PUBCHEM_CONFORMER_ID>
0062532700000004

> <PUBCHEM_MMFF94_ENERGY>
7.2839

> <PUBCHEM_FEATURE_SELFOVERLAP>
30.505

> <PUBCHEM_SHAPE_FINGERPRINT>
12100795 323 17188680386764920529
12156800 1 13283716926084239013
12539773 59 17051867669858571525
13402501 40 18265616661505846919
13422730 73 17836036309050564119
14251757 17 18338514248283662400
15322687 12 18045485440222121429
17977149 70 18190461756366401236
20398071 114 18188199910439432255
23536364 44 18269294408237616942
3524813 1 18051133888835415986

> <PUBCHEM_SHAPE_MULTIPOLES>
441.01
7.91
5.47
2.21
2.79
2.58
-0.9
-0.58
3.37
-1.23
-1.71
-1.44
-2.8
0.76

> <PUBCHEM_SHAPE_SELFOVERLAP>
831.737

> <PUBCHEM_SHAPE_VOLUME>
268.4

> <PUBCHEM_COORDINATE_TYPE>
2
5
10

$$$$
