113941
  -OEChem-02172602523D

 30 30  0     1  0  0  0  0  0999 V2000
    4.7971    0.7122    0.6731 Cl  0  0  0  0  0  0  0  0  0  0  0  0
   -0.8237   -0.0673   -0.8540 O   0  0  0  0  0  0  0  0  0  0  0  0
   -4.0755    1.0396    0.3977 O   0  0  0  0  0  0  0  0  0  0  0  0
   -2.6816   -0.8352    2.0407 O   0  0  0  0  0  0  0  0  0  0  0  0
   -3.1485    0.0980   -0.1516 C   0  0  1  0  0  0  0  0  0  0  0  0
   -1.7746    0.7783   -0.2258 C   0  0  0  0  0  0  0  0  0  0  0  0
   -3.1478   -1.1559    0.7348 C   0  0  0  0  0  0  0  0  0  0  0  0
   -3.6551   -0.2654   -1.5497 C   0  0  0  0  0  0  0  0  0  0  0  0
    0.4900    0.1055   -0.4996 C   0  0  0  0  0  0  0  0  0  0  0  0
    1.3594   -0.9780   -0.5341 C   0  0  0  0  0  0  0  0  0  0  0  0
    2.6953   -0.8020   -0.1732 C   0  0  0  0  0  0  0  0  0  0  0  0
    0.9362    1.3624   -0.1095 C   0  0  0  0  0  0  0  0  0  0  0  0
    3.1516    0.4562    0.2196 C   0  0  0  0  0  0  0  0  0  0  0  0
    2.2720    1.5384    0.2513 C   0  0  0  0  0  0  0  0  0  0  0  0
    3.6053   -1.9868   -0.2196 C   0  0  0  0  0  0  0  0  0  0  0  0
   -1.4720    1.0571    0.7929 H   0  0  0  0  0  0  0  0  0  0  0  0
   -1.8618    1.7093   -0.8018 H   0  0  0  0  0  0  0  0  0  0  0  0
   -2.5018   -1.9368    0.3204 H   0  0  0  0  0  0  0  0  0  0  0  0
   -4.1634   -1.5530    0.8403 H   0  0  0  0  0  0  0  0  0  0  0  0
   -4.6767   -0.6604   -1.5025 H   0  0  0  0  0  0  0  0  0  0  0  0
   -3.0200   -1.0130   -2.0357 H   0  0  0  0  0  0  0  0  0  0  0  0
   -3.6987    0.6227   -2.1906 H   0  0  0  0  0  0  0  0  0  0  0  0
   -3.7895    1.2425    1.3049 H   0  0  0  0  0  0  0  0  0  0  0  0
    0.9893   -1.9527   -0.8417 H   0  0  0  0  0  0  0  0  0  0  0  0
    0.2924    2.2363   -0.0982 H   0  0  0  0  0  0  0  0  0  0  0  0
   -2.7011   -1.6570    2.5601 H   0  0  0  0  0  0  0  0  0  0  0  0
    2.6138    2.5265    0.5491 H   0  0  0  0  0  0  0  0  0  0  0  0
    4.4258   -1.8144   -0.9240 H   0  0  0  0  0  0  0  0  0  0  0  0
    4.0147   -2.1966    0.7741 H   0  0  0  0  0  0  0  0  0  0  0  0
    3.0818   -2.8909   -0.5499 H   0  0  0  0  0  0  0  0  0  0  0  0
  1 13  1  0  0  0  0
  2  6  1  0  0  0  0
  2  9  1  0  0  0  0
  3  5  1  0  0  0  0
  3 23  1  0  0  0  0
  4  7  1  0  0  0  0
  4 26  1  0  0  0  0
  5  6  1  0  0  0  0
  5  7  1  0  0  0  0
  5  8  1  0  0  0  0
  6 16  1  0  0  0  0
  6 17  1  0  0  0  0
  7 18  1  0  0  0  0
  7 19  1  0  0  0  0
  8 20  1  0  0  0  0
  8 21  1  0  0  0  0
  8 22  1  0  0  0  0
  9 10  2  0  0  0  0
  9 12  1  0  0  0  0
 10 11  1  0  0  0  0
 10 24  1  0  0  0  0
 11 13  2  0  0  0  0
 11 15  1  0  0  0  0
 12 14  2  0  0  0  0
 12 25  1  0  0  0  0
 13 14  1  0  0  0  0
 14 27  1  0  0  0  0
 15 28  1  0  0  0  0
 15 29  1  0  0  0  0
 15 30  1  0  0  0  0
M  END
> <PUBCHEM_COMPOUND_CID>
113941

> <PUBCHEM_CONFORMER_RMSD>
0.6

> <PUBCHEM_CONFORMER_DIVERSEORDER>
7
99
57
74
67
27
83
40
6
93
25
81
85
95
29
100
14
80
73
13
91
82
35
62
58
92
55
31
89
94
72
61
56
39
84
32
24
90
22
75
46
79
37
17
96
53
12
38
87
15
98
68
30
88
28
48
11
97
63
70
52
43
23
78
60
86
21
8
64
41
51
54
45
26
101
77
5
3
65
10
69
18
50
16
42
19
44
2
4
66
20
33
59
71
1
36
49
9
76
34
47

> <PUBCHEM_MMFF94_PARTIAL_CHARGES>
19
1 -0.18
10 -0.15
11 -0.14
12 -0.15
13 0.18
14 -0.15
15 0.14
2 -0.36
23 0.4
24 0.15
25 0.15
26 0.4
27 0.15
3 -0.68
4 -0.68
5 0.28
6 0.28
7 0.28
9 0.08

> <PUBCHEM_EFFECTIVE_ROTOR_COUNT>
4

> <PUBCHEM_PHARMACOPHORE_FEATURES>
6
1 2 acceptor
1 3 acceptor
1 3 donor
1 4 acceptor
1 4 donor
6 9 10 11 12 13 14 rings

> <PUBCHEM_HEAVY_ATOM_COUNT>
15

> <PUBCHEM_ATOM_DEF_STEREO_COUNT>
0

> <PUBCHEM_ATOM_UDEF_STEREO_COUNT>
1

> <PUBCHEM_BOND_DEF_STEREO_COUNT>
0

> <PUBCHEM_BOND_UDEF_STEREO_COUNT>
0

> <PUBCHEM_ISOTOPIC_ATOM_COUNT>
0

> <PUBCHEM_COMPONENT_COUNT>
1

> <PUBCHEM_CACTVS_TAUTO_COUNT>
1

> <PUBCHEM_CONFORMER_ID>
0001BD1500000007

> <PUBCHEM_MMFF94_ENERGY>
46.49

> <PUBCHEM_FEATURE_SELFOVERLAP>
30.452

> <PUBCHEM_SHAPE_FINGERPRINT>
10219947 1 18201999915355230022
10366900 7 18336256924815181480
10498660 4 13254526305733040467
10980938 120 18131067147698585492
11471102 20 18341323444842639012
11471102 22 18411705408607847560
11615757 297 17489587891466552120
12236239 1 17275101751599796717
12251169 10 18343020033690579862
12346177 29 17240757428423543691
124424 183 18113890580943717237
12500047 106 16950830462658655751
13296908 3 18259991482729650411
14144814 61 17917710210067421847
14252887 29 18410857651205087130
15219456 202 18408045121403374506
15375358 24 18260542320716872590
15653759 3 18113905974201250243
17834074 16 18260268546885828402
18186145 218 17894631426609055511
19107657 162 17968103057214944467
200 152 17988632017758785421
20279233 1 17967809453239864831
20281407 28 17749111062773174206
20281475 54 18187372012353453414
20645477 70 18342449297193956142
20871998 22 17914619350397517358
22169311 21 17967527973910307431
22485316 2 16805313397210003672
23048698 100 17632577136670061530
23402539 116 13262669327703196252
23557571 272 17604137139395398028
23559900 14 17821730495054049234
26918003 58 18334290972260085185
474 4 17272550979693295512
5104073 3 18343018865559845643
77492 1 17275105045860759701
8809292 202 18114751442745294067

> <PUBCHEM_SHAPE_MULTIPOLES>
292.95
8.81
1.57
1.15
0.46
0.25
0.31
0.3
1.16
-1.21
0.06
1.28
0.25
0.53

> <PUBCHEM_SHAPE_SELFOVERLAP>
588.657

> <PUBCHEM_SHAPE_VOLUME>
174

> <PUBCHEM_COORDINATE_TYPE>
2
5
10

$$$$
