7330522
  -OEChem-02172602343D

 42 44  0     0  0  0  0  0  0999 V2000
    1.0383    0.5166   -0.4780 O   0  0  0  0  0  0  0  0  0  0  0  0
   -1.1876   -1.9995   -1.2891 O   0  0  0  0  0  0  0  0  0  0  0  0
   -3.9188    1.9843    1.3773 O   0  0  0  0  0  0  0  0  0  0  0  0
   -5.2810    0.2412   -0.2883 O   0  0  0  0  0  0  0  0  0  0  0  0
   -3.9044   -1.7466   -1.6159 O   0  0  0  0  0  0  0  0  0  0  0  0
    5.1696   -0.9767    1.5710 O   0  0  0  0  0  0  0  0  0  0  0  0
    2.8064   -1.7463    2.4120 O   0  0  0  0  0  0  0  0  0  0  0  0
    5.2347    2.0129   -2.1188 O   0  0  0  0  0  0  0  0  0  0  0  0
   -1.1678   -0.1319    0.2143 C   0  0  0  0  0  0  0  0  0  0  0  0
    0.2916   -0.2418    0.4107 C   0  0  0  0  0  0  0  0  0  0  0  0
    3.0749   -0.2665    0.5892 C   0  0  0  0  0  0  0  0  0  0  0  0
    2.4059    0.4865   -0.3743 C   0  0  0  0  0  0  0  0  0  0  0  0
   -1.8571   -1.0117   -0.6263 C   0  0  0  0  0  0  0  0  0  0  0  0
   -1.8711    0.8737    0.8844 C   0  0  0  0  0  0  0  0  0  0  0  0
    0.8185   -1.0009    1.3847 C   0  0  0  0  0  0  0  0  0  0  0  0
    2.2858   -1.0652    1.5395 C   0  0  0  0  0  0  0  0  0  0  0  0
   -3.2501    0.9985    0.7157 C   0  0  0  0  0  0  0  0  0  0  0  0
   -3.2361   -0.8867   -0.7951 C   0  0  0  0  0  0  0  0  0  0  0  0
   -3.9326    0.1183   -0.1241 C   0  0  0  0  0  0  0  0  0  0  0  0
    4.4703   -0.2587    0.6487 C   0  0  0  0  0  0  0  0  0  0  0  0
    3.1308    1.2541   -1.2861 C   0  0  0  0  0  0  0  0  0  0  0  0
    4.5248    1.2645   -1.2304 C   0  0  0  0  0  0  0  0  0  0  0  0
    5.1928    0.5097   -0.2650 C   0  0  0  0  0  0  0  0  0  0  0  0
   -0.6803   -1.6802   -2.5818 C   0  0  0  0  0  0  0  0  0  0  0  0
   -4.0462    3.2395    0.7126 C   0  0  0  0  0  0  0  0  0  0  0  0
   -6.1111   -0.4870    0.6133 C   0  0  0  0  0  0  0  0  0  0  0  0
   -1.3482    1.5655    1.5418 H   0  0  0  0  0  0  0  0  0  0  0  0
    0.2097   -1.5785    2.0713 H   0  0  0  0  0  0  0  0  0  0  0  0
    2.6127    1.8428   -2.0389 H   0  0  0  0  0  0  0  0  0  0  0  0
    6.2793    0.5173   -0.2203 H   0  0  0  0  0  0  0  0  0  0  0  0
   -4.8395   -1.4817   -1.6486 H   0  0  0  0  0  0  0  0  0  0  0  0
   -0.0181   -2.4906   -2.8990 H   0  0  0  0  0  0  0  0  0  0  0  0
   -0.1094   -0.7472   -2.5740 H   0  0  0  0  0  0  0  0  0  0  0  0
   -1.5034   -1.6027   -3.2990 H   0  0  0  0  0  0  0  0  0  0  0  0
    4.5658   -1.4704    2.1468 H   0  0  0  0  0  0  0  0  0  0  0  0
   -4.5933    3.1238   -0.2284 H   0  0  0  0  0  0  0  0  0  0  0  0
   -3.0598    3.6747    0.5230 H   0  0  0  0  0  0  0  0  0  0  0  0
   -4.6079    3.9159    1.3626 H   0  0  0  0  0  0  0  0  0  0  0  0
   -5.9664   -0.1322    1.6385 H   0  0  0  0  0  0  0  0  0  0  0  0
   -5.9020   -1.5599    0.5557 H   0  0  0  0  0  0  0  0  0  0  0  0
   -7.1538   -0.3190    0.3301 H   0  0  0  0  0  0  0  0  0  0  0  0
    6.1837    1.9031   -1.9364 H   0  0  0  0  0  0  0  0  0  0  0  0
  1 10  1  0  0  0  0
  1 12  1  0  0  0  0
  2 13  1  0  0  0  0
  2 24  1  0  0  0  0
  3 17  1  0  0  0  0
  3 25  1  0  0  0  0
  4 19  1  0  0  0  0
  4 26  1  0  0  0  0
  5 18  1  0  0  0  0
  5 31  1  0  0  0  0
  6 20  1  0  0  0  0
  6 35  1  0  0  0  0
  7 16  2  0  0  0  0
  8 22  1  0  0  0  0
  8 42  1  0  0  0  0
  9 10  1  0  0  0  0
  9 13  1  0  0  0  0
  9 14  2  0  0  0  0
 10 15  2  0  0  0  0
 11 12  1  0  0  0  0
 11 16  1  0  0  0  0
 11 20  2  0  0  0  0
 12 21  2  0  0  0  0
 13 18  2  0  0  0  0
 14 17  1  0  0  0  0
 14 27  1  0  0  0  0
 15 16  1  0  0  0  0
 15 28  1  0  0  0  0
 17 19  2  0  0  0  0
 18 19  1  0  0  0  0
 20 23  1  0  0  0  0
 21 22  1  0  0  0  0
 21 29  1  0  0  0  0
 22 23  2  0  0  0  0
 23 30  1  0  0  0  0
 24 32  1  0  0  0  0
 24 33  1  0  0  0  0
 24 34  1  0  0  0  0
 25 36  1  0  0  0  0
 25 37  1  0  0  0  0
 25 38  1  0  0  0  0
 26 39  1  0  0  0  0
 26 40  1  0  0  0  0
 26 41  1  0  0  0  0
M  END
> <PUBCHEM_COMPOUND_CID>
7330522

> <PUBCHEM_CONFORMER_RMSD>
0.8

> <PUBCHEM_CONFORMER_DIVERSEORDER>
3
9
7
4
11
10
6
1
8
5
2

> <PUBCHEM_MMFF94_PARTIAL_CHARGES>
33
1 -0.16
10 0.05
11 0.09
12 0.08
13 0.08
14 -0.15
15 -0.14
16 0.47
17 0.08
18 0.08
19 0.08
2 -0.36
20 0.08
21 -0.15
22 0.08
23 -0.15
24 0.28
25 0.28
26 0.28
27 0.15
28 0.15
29 0.15
3 -0.36
30 0.15
31 0.45
35 0.45
4 -0.36
42 0.45
5 -0.53
6 -0.53
7 -0.57
8 -0.53
9 0.03

> <PUBCHEM_EFFECTIVE_ROTOR_COUNT>
4

> <PUBCHEM_PHARMACOPHORE_FEATURES>
11
1 1 acceptor
1 2 acceptor
1 3 acceptor
1 4 acceptor
1 5 donor
1 6 donor
1 7 acceptor
1 8 donor
6 1 10 11 12 15 16 rings
6 11 12 20 21 22 23 rings
6 9 13 14 17 18 19 rings

> <PUBCHEM_HEAVY_ATOM_COUNT>
26

> <PUBCHEM_ATOM_DEF_STEREO_COUNT>
0

> <PUBCHEM_ATOM_UDEF_STEREO_COUNT>
0

> <PUBCHEM_BOND_DEF_STEREO_COUNT>
0

> <PUBCHEM_BOND_UDEF_STEREO_COUNT>
0

> <PUBCHEM_ISOTOPIC_ATOM_COUNT>
0

> <PUBCHEM_COMPONENT_COUNT>
1

> <PUBCHEM_CACTVS_TAUTO_COUNT>
36

> <PUBCHEM_CONFORMER_ID>
006FDADA00000003

> <PUBCHEM_MMFF94_ENERGY>
110.8358

> <PUBCHEM_FEATURE_SELFOVERLAP>
55.856

> <PUBCHEM_SHAPE_FINGERPRINT>
10498660 4 17846500275186564297
105312 117 17845932923150088125
10615611 76 18262818297102661205
10670039 82 18202009784879411437
10906281 52 18269847437249204641
11370993 144 16443904947399295601
12107183 9 17612020478588900993
12236239 1 18335417963336332923
12390115 104 17274274833885077481
12403259 415 16845290523314991889
12596602 18 18113903784010607027
12616971 3 18260540130426216774
12730499 353 16805321102444779490
12788726 201 18194400228371261347
12916748 109 18202849854917894385
13140716 1 17773303738327805867
13544592 145 15985108539052746223
13583140 156 17895484721195481377
13617811 41 18060700594234304437
13631057 29 17680152064597138011
13782708 43 15984539035412073479
14294032 229 18059580127835949561
14386348 63 15985104136610917371
14739800 52 18198892794818252560
15342168 16 17023757847861776428
16752209 62 17988913488103236687
16988056 13 15747833521984567977
17818456 19 17983011146603152840
17844677 252 17240481368867642276
1813 80 17972592183351667034
20511986 3 18335689529739725792
20645477 70 17095515176335799442
21033648 144 17458906045722183174
21033648 29 16200422551108712515
21033650 10 17987258688907212952
21065201 7 17632855334739868646
21133410 230 14447401468859530323
21756936 100 18262254312320136248
22122407 14 17967820397123328213
221357 26 14548743876245023371
22182313 1 15791997988300251830
23366157 5 17981897337203789215
23557571 272 17132392813121015641
23559900 14 16630528474865166044
23569943 247 17755294575141820546
2838139 119 17532916231052200477
3004659 81 17988934315001198038
3298306 158 16773520988317522046
3633792 109 17531236241825069867
38570 142 17896626001665028660
4340502 62 17530971301781495731
46194498 28 16701733968756076464
474 4 17822296820540412000
508706 21 16845282891036801175
5104073 3 17313109691641169456
5265222 85 17488741315818166918
59755656 215 16845578600004628655
621550 34 16153698826103982766
633830 44 18114758070322878422
9849439 229 17268078939533816833

> <PUBCHEM_SHAPE_MULTIPOLES>
488.11
12.62
2.15
1.94
0.22
0.99
0.14
3.78
0.37
2.32
0.51
-2.18
-0.68
-3.06

> <PUBCHEM_SHAPE_SELFOVERLAP>
1073.599

> <PUBCHEM_SHAPE_VOLUME>
263.6

> <PUBCHEM_COORDINATE_TYPE>
2
5
10

$$$$
