142832
  -OEChem-02172602283D

 36 35  0     0  0  0  0  0  0999 V2000
   -2.4779    0.5325    0.3344 C   0  0  0  0  0  0  0  0  0  0  0  0
    1.1483   -2.7149    0.2906 C   0  0  0  0  0  0  0  0  0  0  0  0
   -3.9599    0.1508    0.2942 C   0  0  0  0  0  0  0  0  0  0  0  0
    0.6241   -2.3110   -1.0902 C   0  0  0  0  0  0  0  0  0  0  0  0
   -2.0894    1.5100   -0.7765 C   0  0  0  0  0  0  0  0  0  0  0  0
    2.5251   -2.1266    0.6015 C   0  0  0  0  0  0  0  0  0  0  0  0
   -4.3327   -0.7626    1.4512 C   0  0  0  0  0  0  0  0  0  0  0  0
   -0.7093   -2.9769   -1.3939 C   0  0  0  0  0  0  0  0  0  0  0  0
    1.8835    2.6402   -0.4889 C   0  0  0  0  0  0  0  0  0  0  0  0
    2.5569    2.0124    0.7309 C   0  0  0  0  0  0  0  0  0  0  0  0
   -0.6809    1.9177   -0.6861 C   0  0  0  0  0  0  0  0  0  0  0  0
    2.5145   -0.6583    0.6496 C   0  0  0  0  0  0  0  0  0  0  0  0
    0.4716    2.2446   -0.6028 C   0  0  0  0  0  0  0  0  0  0  0  0
    2.5261    0.5421    0.6862 C   0  0  0  0  0  0  0  0  0  0  0  0
   -1.8627   -0.3730    0.2606 H   0  0  0  0  0  0  0  0  0  0  0  0
   -2.2483    0.9830    1.3091 H   0  0  0  0  0  0  0  0  0  0  0  0
    0.4295   -2.4002    1.0581 H   0  0  0  0  0  0  0  0  0  0  0  0
    1.2162   -3.8083    0.3467 H   0  0  0  0  0  0  0  0  0  0  0  0
   -4.5776    1.0553    0.3387 H   0  0  0  0  0  0  0  0  0  0  0  0
   -4.1865   -0.3514   -0.6533 H   0  0  0  0  0  0  0  0  0  0  0  0
    1.3500   -2.5940   -1.8613 H   0  0  0  0  0  0  0  0  0  0  0  0
    0.4939   -1.2250   -1.1488 H   0  0  0  0  0  0  0  0  0  0  0  0
   -2.7264    2.4007   -0.7215 H   0  0  0  0  0  0  0  0  0  0  0  0
   -2.2738    1.0462   -1.7526 H   0  0  0  0  0  0  0  0  0  0  0  0
    2.8662   -2.5161    1.5678 H   0  0  0  0  0  0  0  0  0  0  0  0
    3.2489   -2.4658   -0.1488 H   0  0  0  0  0  0  0  0  0  0  0  0
   -4.1496   -0.2728    2.4129 H   0  0  0  0  0  0  0  0  0  0  0  0
   -5.3941   -1.0251    1.4002 H   0  0  0  0  0  0  0  0  0  0  0  0
   -3.7512   -1.6897    1.4210 H   0  0  0  0  0  0  0  0  0  0  0  0
   -0.6104   -4.0671   -1.3991 H   0  0  0  0  0  0  0  0  0  0  0  0
   -1.4643   -2.7048   -0.6499 H   0  0  0  0  0  0  0  0  0  0  0  0
   -1.0734   -2.6645   -2.3776 H   0  0  0  0  0  0  0  0  0  0  0  0
    1.9536    3.7316   -0.4163 H   0  0  0  0  0  0  0  0  0  0  0  0
    2.4165    2.3457   -1.4014 H   0  0  0  0  0  0  0  0  0  0  0  0
    3.5969    2.3549    0.7826 H   0  0  0  0  0  0  0  0  0  0  0  0
    2.0619    2.3562    1.6475 H   0  0  0  0  0  0  0  0  0  0  0  0
  1  3  1  0  0  0  0
  1  5  1  0  0  0  0
  1 15  1  0  0  0  0
  1 16  1  0  0  0  0
  2  4  1  0  0  0  0
  2  6  1  0  0  0  0
  2 17  1  0  0  0  0
  2 18  1  0  0  0  0
  3  7  1  0  0  0  0
  3 19  1  0  0  0  0
  3 20  1  0  0  0  0
  4  8  1  0  0  0  0
  4 21  1  0  0  0  0
  4 22  1  0  0  0  0
  5 11  1  0  0  0  0
  5 23  1  0  0  0  0
  5 24  1  0  0  0  0
  6 12  1  0  0  0  0
  6 25  1  0  0  0  0
  6 26  1  0  0  0  0
  7 27  1  0  0  0  0
  7 28  1  0  0  0  0
  7 29  1  0  0  0  0
  8 30  1  0  0  0  0
  8 31  1  0  0  0  0
  8 32  1  0  0  0  0
  9 10  1  0  0  0  0
  9 13  1  0  0  0  0
  9 33  1  0  0  0  0
  9 34  1  0  0  0  0
 10 14  1  0  0  0  0
 10 35  1  0  0  0  0
 10 36  1  0  0  0  0
 11 13  3  0  0  0  0
 12 14  3  0  0  0  0
M  END
> <PUBCHEM_COMPOUND_CID>
142832

> <PUBCHEM_CONFORMER_RMSD>
0.6

> <PUBCHEM_CONFORMER_DIVERSEORDER>
1
44
13
34
31
47
12
41
42
29
3
49
32
57
52
4
53
38
2
5
54
21
36
23
14
22
16
40
39
20
46
50
43
45
17
33
9
25
28
56
15
55
24
19
8
51
26
35
10
58
30
7
27
11
37
6
48
18

> <PUBCHEM_MMFF94_PARTIAL_CHARGES>
8
10 0.2
11 -0.2
12 -0.2
13 -0.2
14 -0.2
5 0.2
6 0.2
9 0.2

> <PUBCHEM_EFFECTIVE_ROTOR_COUNT>
5

> <PUBCHEM_PHARMACOPHORE_FEATURES>
5
1 7 hydrophobe
1 8 hydrophobe
4 1 3 5 11 hydrophobe
4 2 4 6 12 hydrophobe
4 9 10 13 14 hydrophobe

> <PUBCHEM_HEAVY_ATOM_COUNT>
14

> <PUBCHEM_ATOM_DEF_STEREO_COUNT>
0

> <PUBCHEM_ATOM_UDEF_STEREO_COUNT>
0

> <PUBCHEM_BOND_DEF_STEREO_COUNT>
0

> <PUBCHEM_BOND_UDEF_STEREO_COUNT>
0

> <PUBCHEM_ISOTOPIC_ATOM_COUNT>
0

> <PUBCHEM_COMPONENT_COUNT>
1

> <PUBCHEM_CACTVS_TAUTO_COUNT>
1

> <PUBCHEM_CONFORMER_ID>
00022DF000000001

> <PUBCHEM_MMFF94_ENERGY>
-4.5076

> <PUBCHEM_FEATURE_SELFOVERLAP>
25.376

> <PUBCHEM_SHAPE_FINGERPRINT>
10064457 181 18059292179166487816
117890 22 18334301929212150865
12400797 245 18333730199965716167
14251705 54 18263926548851039473
14251757 5 16109821371520875391
14464042 87 17697026312703991575
20397935 3 17532680977832786595
20645477 70 18260537957684533029
20724930 14 18339641140090560292
23590187 169 18410287043150890711
2748010 2 17978769252328720900
2803657 2 17471275723043263060
568465 68 17554012500118035762
6438718 38 17481153714037569598
81228 2 17403165397155529844
8809292 202 16683152939558837206

> <PUBCHEM_SHAPE_MULTIPOLES>
288.11
6.12
4.17
1.26
6.79
1.46
-0.06
-0.11
3.19
-2.43
-1.4
0.48
0.48
0.18

> <PUBCHEM_SHAPE_SELFOVERLAP>
527.744

> <PUBCHEM_SHAPE_VOLUME>
178.3

> <PUBCHEM_COORDINATE_TYPE>
2
5
10

$$$$
