11210940
  -OEChem-02172602483D

 48 49  0     0  0  0  0  0  0999 V2000
    2.8419    5.0915   -0.5412 O   0  0  0  0  0  0  0  0  0  0  0  0
    0.4160   -0.5532    2.1991 O   0  0  0  0  0  0  0  0  0  0  0  0
    2.6532   -2.0925    1.7706 O   0  0  0  0  0  0  0  0  0  0  0  0
   -6.6319   -0.2099   -1.3283 O   0  0  0  0  0  0  0  0  0  0  0  0
   -6.9849   -2.8693   -1.1334 O   0  0  0  0  0  0  0  0  0  0  0  0
    0.1446    1.2359    0.7404 N   0  0  0  0  0  0  0  0  0  0  0  0
    1.9903   -0.2287    0.5363 N   0  0  0  0  0  0  0  0  0  0  0  0
   -5.8359   -2.2530   -0.6171 N   0  0  0  0  0  0  0  0  0  0  0  0
    0.6151    2.0606   -0.3700 C   0  0  0  0  0  0  0  0  0  0  0  0
   -1.0771    1.6866    1.3940 C   0  0  0  0  0  0  0  0  0  0  0  0
    1.5180    3.1977    0.0894 C   0  0  0  0  0  0  0  0  0  0  0  0
   -2.2964    1.0172    0.8288 C   0  0  0  0  0  0  0  0  0  0  0  0
    0.8147    0.0970    1.2286 C   0  0  0  0  0  0  0  0  0  0  0  0
    1.9967    4.0740   -1.0618 C   0  0  0  0  0  0  0  0  0  0  0  0
   -2.9723    1.5913   -0.2477 C   0  0  0  0  0  0  0  0  0  0  0  0
   -2.7533   -0.1795    1.3813 C   0  0  0  0  0  0  0  0  0  0  0  0
   -4.1050    0.9688   -0.7721 C   0  0  0  0  0  0  0  0  0  0  0  0
   -3.8860   -0.8021    0.8569 C   0  0  0  0  0  0  0  0  0  0  0  0
   -4.5618   -0.2279   -0.2199 C   0  0  0  0  0  0  0  0  0  0  0  0
    2.8296   -1.2980    0.8511 C   0  0  0  0  0  0  0  0  0  0  0  0
    4.0373   -1.4389   -0.0020 C   0  0  0  0  0  0  0  0  0  0  0  0
   -5.7437   -0.8762   -0.7655 C   0  0  0  0  0  0  0  0  0  0  0  0
    5.1834   -2.0496    0.5071 C   0  0  0  0  0  0  0  0  0  0  0  0
    4.0251   -0.9611   -1.3125 C   0  0  0  0  0  0  0  0  0  0  0  0
    6.3175   -2.1823   -0.2940 C   0  0  0  0  0  0  0  0  0  0  0  0
    5.1593   -1.0939   -2.1137 C   0  0  0  0  0  0  0  0  0  0  0  0
    6.3054   -1.7045   -1.6044 C   0  0  0  0  0  0  0  0  0  0  0  0
   -0.2586    2.4802   -0.8815 H   0  0  0  0  0  0  0  0  0  0  0  0
    1.1111    1.4488   -1.1287 H   0  0  0  0  0  0  0  0  0  0  0  0
   -1.0093    1.4699    2.4677 H   0  0  0  0  0  0  0  0  0  0  0  0
   -1.1604    2.7776    1.3177 H   0  0  0  0  0  0  0  0  0  0  0  0
    0.9991    3.8244    0.8257 H   0  0  0  0  0  0  0  0  0  0  0  0
    2.3893    2.7955    0.6222 H   0  0  0  0  0  0  0  0  0  0  0  0
    1.1504    4.5475   -1.5692 H   0  0  0  0  0  0  0  0  0  0  0  0
    2.5661    3.4854   -1.7881 H   0  0  0  0  0  0  0  0  0  0  0  0
   -2.6333    2.5265   -0.6845 H   0  0  0  0  0  0  0  0  0  0  0  0
   -2.2481   -0.6328    2.2292 H   0  0  0  0  0  0  0  0  0  0  0  0
   -4.6162    1.4307   -1.6127 H   0  0  0  0  0  0  0  0  0  0  0  0
   -4.2251   -1.7176    1.3326 H   0  0  0  0  0  0  0  0  0  0  0  0
    2.3131    0.4145   -0.1725 H   0  0  0  0  0  0  0  0  0  0  0  0
    3.1322    5.6336   -1.2944 H   0  0  0  0  0  0  0  0  0  0  0  0
    5.2144   -2.4244    1.5268 H   0  0  0  0  0  0  0  0  0  0  0  0
    3.1446   -0.5111   -1.7613 H   0  0  0  0  0  0  0  0  0  0  0  0
    7.2102   -2.6570    0.1024 H   0  0  0  0  0  0  0  0  0  0  0  0
    5.1480   -0.7293   -3.1367 H   0  0  0  0  0  0  0  0  0  0  0  0
   -5.1776   -2.8637   -0.1479 H   0  0  0  0  0  0  0  0  0  0  0  0
    7.1879   -1.8094   -2.2287 H   0  0  0  0  0  0  0  0  0  0  0  0
   -6.6316   -3.2151   -1.9706 H   0  0  0  0  0  0  0  0  0  0  0  0
  1 14  1  0  0  0  0
  1 41  1  0  0  0  0
  2 13  2  0  0  0  0
  3 20  2  0  0  0  0
  4 22  2  0  0  0  0
  5  8  1  0  0  0  0
  5 48  1  0  0  0  0
  6  9  1  0  0  0  0
  6 10  1  0  0  0  0
  6 13  1  0  0  0  0
  7 13  1  0  0  0  0
  7 20  1  0  0  0  0
  7 40  1  0  0  0  0
  8 22  1  0  0  0  0
  8 46  1  0  0  0  0
  9 11  1  0  0  0  0
  9 28  1  0  0  0  0
  9 29  1  0  0  0  0
 10 12  1  0  0  0  0
 10 30  1  0  0  0  0
 10 31  1  0  0  0  0
 11 14  1  0  0  0  0
 11 32  1  0  0  0  0
 11 33  1  0  0  0  0
 12 15  2  0  0  0  0
 12 16  1  0  0  0  0
 14 34  1  0  0  0  0
 14 35  1  0  0  0  0
 15 17  1  0  0  0  0
 15 36  1  0  0  0  0
 16 18  2  0  0  0  0
 16 37  1  0  0  0  0
 17 19  2  0  0  0  0
 17 38  1  0  0  0  0
 18 19  1  0  0  0  0
 18 39  1  0  0  0  0
 19 22  1  0  0  0  0
 20 21  1  0  0  0  0
 21 23  2  0  0  0  0
 21 24  1  0  0  0  0
 23 25  1  0  0  0  0
 23 42  1  0  0  0  0
 24 26  2  0  0  0  0
 24 43  1  0  0  0  0
 25 27  2  0  0  0  0
 25 44  1  0  0  0  0
 26 27  1  0  0  0  0
 26 45  1  0  0  0  0
 27 47  1  0  0  0  0
M  END
> <PUBCHEM_COMPOUND_CID>
11210940

> <PUBCHEM_CONFORMER_RMSD>
1

> <PUBCHEM_CONFORMER_DIVERSEORDER>
1
9
142
89
90
160
55
57
7
166
158
195
170
111
46
131
127
69
74
121
177
110
132
135
17
32
122
193
159
83
8
174
124
25
82
54
21
49
84
168
93
113
129
26
95
147
77
73
24
94
48
176
141
37
88
120
10
101
98
163
117
150
68
76
39
72
53
23
75
4
51
45
169
180
172
118
130
18
58
103
67
183
66
165
155
79
42
137
185
186
126
125
149
191
92
14
154
194
179
70
153
184
157
107
60
182
128
102
108
116
64
36
44
148
43
65
86
199
105
20
109
167
161
22
134
140
133
189
156
85
146
123
34
197
50
71
33
38
145
171
30
41
104
181
162
59
81
152
31
138
112
97
187
164
96
5
47
100
61
136
15
2
119
29
6
3
80
63
35
62
178
19
115
99
28
78
139
56
91
175
87
200
192
144
151
188
16
190
196
27
198
114
12
11
173
143
40
13
106
52

> <PUBCHEM_MMFF94_PARTIAL_CHARGES>
39
1 -0.68
10 0.44
12 -0.14
13 0.69
14 0.28
15 -0.15
16 -0.15
17 -0.15
18 -0.15
19 0.09
2 -0.57
20 0.54
21 0.09
22 0.54
23 -0.15
24 -0.15
25 -0.15
26 -0.15
27 -0.15
3 -0.57
36 0.15
37 0.15
38 0.15
39 0.15
4 -0.57
40 0.37
41 0.4
42 0.15
43 0.15
44 0.15
45 0.15
46 0.37
47 0.15
48 0.4
5 -0.44
6 -0.66
7 -0.49
8 -0.39
9 0.3

> <PUBCHEM_EFFECTIVE_ROTOR_COUNT>
11

> <PUBCHEM_PHARMACOPHORE_FEATURES>
9
1 1 acceptor
1 1 donor
1 2 acceptor
1 3 acceptor
1 4 acceptor
1 7 donor
1 8 donor
6 12 15 16 17 18 19 rings
6 21 23 24 25 26 27 rings

> <PUBCHEM_HEAVY_ATOM_COUNT>
27

> <PUBCHEM_ATOM_DEF_STEREO_COUNT>
0

> <PUBCHEM_ATOM_UDEF_STEREO_COUNT>
0

> <PUBCHEM_BOND_DEF_STEREO_COUNT>
0

> <PUBCHEM_BOND_UDEF_STEREO_COUNT>
0

> <PUBCHEM_ISOTOPIC_ATOM_COUNT>
0

> <PUBCHEM_COMPONENT_COUNT>
1

> <PUBCHEM_CACTVS_TAUTO_COUNT>
9

> <PUBCHEM_CONFORMER_ID>
00AB10BC00000001

> <PUBCHEM_MMFF94_ENERGY>
71.5013

> <PUBCHEM_FEATURE_SELFOVERLAP>
45.678

> <PUBCHEM_SHAPE_FINGERPRINT>
10693767 8 18411419514468693518
11315621 136 18340768251611106423
12166972 35 18343865523793693567
12422481 6 11959457704725597372
12788726 201 17754455647426428480
12839892 36 11095296630574199229
12895836 83 13840268087621604843
13009979 54 18060426793936988273
13103583 49 12822999920248475619
13540713 4 17678752351987326089
13540713 5 18129401400510508273
1361 4 17980195607190519151
13690498 29 18333730187703300429
13757389 114 17837503950620880449
13782708 43 17487065453860450278
14068700 675 18342737386441336377
14251740 57 18131626820043379315
14251764 30 17846217700840663326
14739800 52 11386358266568232879
14767858 380 17968104088207704842
15183329 4 16443350827999069530
16989378 47 18343025526959052935
1813 80 18272654506828769796
18222031 100 18411979131284659722
193927 3 17775282746839599067
19438510 23 11458700574320522119
19784866 240 18060699490342780739
20775438 99 18119803870484672746
21344244 246 18339365287859543180
23559900 14 18338226159326510257
2838139 119 15068625946189922862
3004659 81 18412537722183976491
3459 39 10665229301805232703
4017518 198 17980490280860349268
4280585 95 18336542729487957976
46194498 28 18262789787325560733
532947 4 18262812868939251784
6669772 16 18121792887531081316
6700243 42 17842579361419837364
7970288 3 18272931587843492455
999808 66 16917068832577928383

> <PUBCHEM_SHAPE_MULTIPOLES>
511.36
16.52
4.21
1.72
7.06
6.27
-0.1
-17.72
9.36
-2.79
1.34
-0.68
-0.52
-1.32

> <PUBCHEM_SHAPE_SELFOVERLAP>
1071.303

> <PUBCHEM_SHAPE_VOLUME>
286.4

> <PUBCHEM_COORDINATE_TYPE>
2
5
10

$$$$
