5318240
  -OEChem-02172602233D

 53 56  0     1  0  0  0  0  0999 V2000
   -3.4385   -0.0978   -0.5977 O   0  0  0  0  0  0  0  0  0  0  0  0
   -2.6508    0.6468    1.4685 O   0  0  0  0  0  0  0  0  0  0  0  0
   -6.6371   -1.9847    1.1557 O   0  0  0  0  0  0  0  0  0  0  0  0
   -5.8718   -2.6649   -1.5475 O   0  0  0  0  0  0  0  0  0  0  0  0
   -4.2631   -1.2897    2.7562 O   0  0  0  0  0  0  0  0  0  0  0  0
   -2.7442   -0.3739   -3.2431 O   0  0  0  0  0  0  0  0  0  0  0  0
    1.9159   -0.1599    0.4793 O   0  0  0  0  0  0  0  0  0  0  0  0
   -2.4147    3.2660    0.6081 O   0  0  0  0  0  0  0  0  0  0  0  0
   -0.0266    4.2013   -0.3202 O   0  0  0  0  0  0  0  0  0  0  0  0
    4.6420    1.9288   -0.8600 O   0  0  0  0  0  0  0  0  0  0  0  0
    2.4671    3.6613   -0.8231 O   0  0  0  0  0  0  0  0  0  0  0  0
    7.0938   -3.7319    0.1750 O   0  0  0  0  0  0  0  0  0  0  0  0
   -5.3009   -1.8857    0.6607 C   0  0  1  0  0  0  0  0  0  0  0  0
   -5.3720   -1.5413   -0.8270 C   0  0  1  0  0  0  0  0  0  0  0  0
   -4.5470   -0.8096    1.4423 C   0  0  2  0  0  0  0  0  0  0  0  0
   -3.9883   -1.1699   -1.3653 C   0  0  1  0  0  0  0  0  0  0  0  0
   -3.2229   -0.4557    0.7654 C   0  0  1  0  0  0  0  0  0  0  0  0
   -4.0525   -0.7096   -2.8183 C   0  0  0  0  0  0  0  0  0  0  0  0
   -1.4566    1.1146    1.0031 C   0  0  0  0  0  0  0  0  0  0  0  0
   -0.3553    0.2593    0.9656 C   0  0  0  0  0  0  0  0  0  0  0  0
   -1.3327    2.4348    0.5684 C   0  0  0  0  0  0  0  0  0  0  0  0
    0.8709    0.7271    0.4921 C   0  0  0  0  0  0  0  0  0  0  0  0
    0.9934    2.0454    0.0589 C   0  0  0  0  0  0  0  0  0  0  0  0
   -0.1072    2.9051    0.0950 C   0  0  0  0  0  0  0  0  0  0  0  0
    2.2981    2.5139   -0.4327 C   0  0  0  0  0  0  0  0  0  0  0  0
    3.1455    0.2729    0.0081 C   0  0  0  0  0  0  0  0  0  0  0  0
    3.3988    1.5202   -0.4283 C   0  0  0  0  0  0  0  0  0  0  0  0
    4.1796   -0.7766    0.0522 C   0  0  0  0  0  0  0  0  0  0  0  0
    4.9613   -0.9406    1.1968 C   0  0  0  0  0  0  0  0  0  0  0  0
    4.3790   -1.6080   -1.0510 C   0  0  0  0  0  0  0  0  0  0  0  0
    5.9402   -1.9334    1.2379 C   0  0  0  0  0  0  0  0  0  0  0  0
    5.3579   -2.6008   -1.0098 C   0  0  0  0  0  0  0  0  0  0  0  0
    6.1385   -2.7636    0.1346 C   0  0  0  0  0  0  0  0  0  0  0  0
   -4.8399   -2.8690    0.8152 H   0  0  0  0  0  0  0  0  0  0  0  0
   -6.0783   -0.7154   -0.9765 H   0  0  0  0  0  0  0  0  0  0  0  0
   -5.1725    0.0834    1.5593 H   0  0  0  0  0  0  0  0  0  0  0  0
   -3.3011   -2.0253   -1.3110 H   0  0  0  0  0  0  0  0  0  0  0  0
   -2.5425   -1.3155    0.8215 H   0  0  0  0  0  0  0  0  0  0  0  0
   -4.6785    0.1820   -2.9289 H   0  0  0  0  0  0  0  0  0  0  0  0
   -4.4373   -1.4946   -3.4754 H   0  0  0  0  0  0  0  0  0  0  0  0
   -7.0923   -2.6653    0.6309 H   0  0  0  0  0  0  0  0  0  0  0  0
   -5.2476   -3.4008   -1.4268 H   0  0  0  0  0  0  0  0  0  0  0  0
   -3.7093   -2.0848    2.6739 H   0  0  0  0  0  0  0  0  0  0  0  0
   -2.4097    0.3184   -2.6474 H   0  0  0  0  0  0  0  0  0  0  0  0
   -0.4334   -0.7653    1.3192 H   0  0  0  0  0  0  0  0  0  0  0  0
   -2.1445    4.1373    0.2696 H   0  0  0  0  0  0  0  0  0  0  0  0
    0.8677    4.4084   -0.6307 H   0  0  0  0  0  0  0  0  0  0  0  0
    4.8181   -0.3016    2.0649 H   0  0  0  0  0  0  0  0  0  0  0  0
    3.7782   -1.4936   -1.9500 H   0  0  0  0  0  0  0  0  0  0  0  0
    4.5699    2.8650   -1.1141 H   0  0  0  0  0  0  0  0  0  0  0  0
    6.5417   -2.0500    2.1354 H   0  0  0  0  0  0  0  0  0  0  0  0
    5.5077   -3.2444   -1.8724 H   0  0  0  0  0  0  0  0  0  0  0  0
    7.5366   -3.7019    1.0405 H   0  0  0  0  0  0  0  0  0  0  0  0
  1 16  1  0  0  0  0
  1 17  1  0  0  0  0
  2 17  1  0  0  0  0
  2 19  1  0  0  0  0
  3 13  1  0  0  0  0
  3 41  1  0  0  0  0
  4 14  1  0  0  0  0
  4 42  1  0  0  0  0
  5 15  1  0  0  0  0
  5 43  1  0  0  0  0
  6 18  1  0  0  0  0
  6 44  1  0  0  0  0
  7 22  1  0  0  0  0
  7 26  1  0  0  0  0
  8 21  1  0  0  0  0
  8 46  1  0  0  0  0
  9 24  1  0  0  0  0
  9 47  1  0  0  0  0
 10 27  1  0  0  0  0
 10 50  1  0  0  0  0
 11 25  2  0  0  0  0
 12 33  1  0  0  0  0
 12 53  1  0  0  0  0
 13 14  1  0  0  0  0
 13 15  1  0  0  0  0
 13 34  1  0  0  0  0
 14 16  1  0  0  0  0
 14 35  1  0  0  0  0
 15 17  1  0  0  0  0
 15 36  1  0  0  0  0
 16 18  1  0  0  0  0
 16 37  1  0  0  0  0
 17 38  1  0  0  0  0
 18 39  1  0  0  0  0
 18 40  1  0  0  0  0
 19 20  1  0  0  0  0
 19 21  2  0  0  0  0
 20 22  2  0  0  0  0
 20 45  1  0  0  0  0
 21 24  1  0  0  0  0
 22 23  1  0  0  0  0
 23 24  2  0  0  0  0
 23 25  1  0  0  0  0
 25 27  1  0  0  0  0
 26 27  2  0  0  0  0
 26 28  1  0  0  0  0
 28 29  2  0  0  0  0
 28 30  1  0  0  0  0
 29 31  1  0  0  0  0
 29 48  1  0  0  0  0
 30 32  2  0  0  0  0
 30 49  1  0  0  0  0
 31 33  2  0  0  0  0
 31 51  1  0  0  0  0
 32 33  1  0  0  0  0
 32 52  1  0  0  0  0
M  END
> <PUBCHEM_COMPOUND_CID>
5318240

> <PUBCHEM_CONFORMER_RMSD>
0.8

> <PUBCHEM_CONFORMER_DIVERSEORDER>
1
89
88
91
19
30
59
50
94
73
82
74
70
46
92
22
24
44
17
55
75
95
57
85
90
14
54
42
16
48
8
67
84
36
37
15
81
12
93
64
53
41
2
58
61
68
32
5
6
66
3
26
7
47
39
28
49
45
69
4
52
76
78
86
51
71
56
21
63
34
65
40
27
38
96
31
79
13
43
80
20
23
29
83
11
87
77
18
72
35
60
10
25
62
9
33

> <PUBCHEM_MMFF94_PARTIAL_CHARGES>
46
1 -0.56
10 -0.53
11 -0.57
12 -0.53
13 0.28
14 0.28
15 0.28
16 0.28
17 0.56
18 0.28
19 0.08
2 -0.36
20 -0.15
21 0.08
22 0.08
23 0.09
24 0.08
25 0.47
26 0.05
27 0.09
28 0.03
29 -0.15
3 -0.68
30 -0.15
31 -0.15
32 -0.15
33 0.08
4 -0.68
41 0.4
42 0.4
43 0.4
44 0.4
45 0.15
46 0.45
47 0.45
48 0.15
49 0.15
5 -0.68
50 0.45
51 0.15
52 0.15
53 0.45
6 -0.68
7 -0.16
8 -0.53
9 -0.53

> <PUBCHEM_EFFECTIVE_ROTOR_COUNT>
5.2

> <PUBCHEM_PHARMACOPHORE_FEATURES>
20
1 1 acceptor
1 10 donor
1 11 acceptor
1 12 donor
1 2 acceptor
1 3 acceptor
1 3 donor
1 4 acceptor
1 4 donor
1 5 acceptor
1 5 donor
1 6 acceptor
1 6 donor
1 7 acceptor
1 8 donor
1 9 donor
6 1 13 14 15 16 17 rings
6 19 20 21 22 23 24 rings
6 28 29 30 31 32 33 rings
6 7 22 23 25 26 27 rings

> <PUBCHEM_HEAVY_ATOM_COUNT>
33

> <PUBCHEM_ATOM_DEF_STEREO_COUNT>
5

> <PUBCHEM_ATOM_UDEF_STEREO_COUNT>
0

> <PUBCHEM_BOND_DEF_STEREO_COUNT>
0

> <PUBCHEM_BOND_UDEF_STEREO_COUNT>
0

> <PUBCHEM_ISOTOPIC_ATOM_COUNT>
0

> <PUBCHEM_COMPONENT_COUNT>
1

> <PUBCHEM_CACTVS_TAUTO_COUNT>
109

> <PUBCHEM_CONFORMER_ID>
0051266000000001

> <PUBCHEM_MMFF94_ENERGY>
107.567

> <PUBCHEM_FEATURE_SELFOVERLAP>
101.604

> <PUBCHEM_SHAPE_FINGERPRINT>
10050765 1 18408611339896434968
10622 236 18412260627446017234
10670039 82 14634857631016793431
10693767 8 18339635763145492459
11135609 149 18337939186322577988
11135926 11 18192438695600964468
11227688 84 18046348535612901010
11607047 403 17627771330781323448
12166972 35 17895199908612535078
12422481 6 17489318438240550879
12633257 1 15625943183388772025
13540713 5 18265637445090618704
13782708 43 17822289145571452803
13911987 19 17612608025641620061
14114206 34 17168716202427262528
14347332 77 18411143510768595424
14429380 30 18336551525845107402
15183329 4 15285638759857048930
15320294 125 17489592294541527223
17492 89 18410299090613563152
17686467 74 18410568458821089874
1813 80 18201729487082254325
19301679 30 18342471330829650707
19303781 99 18409721855472951414
19315092 285 17917709123994662552
19319366 153 17908144626700516412
19958102 18 17312818290594208227
20028762 73 18343585123066248558
20691028 202 8790886297875417243
20775438 99 18120646092339376962
208703 8 18409730634280323578
21033650 10 15574989542225053469
21703447 108 18336255808857148568
22393880 68 17313090960776665867
23536364 44 18113889425839977765
23569914 152 18049410722993170381
24771750 20 17176041453386045101
34797466 226 16516250789740650101
46194498 28 17169270544928223157
50009960 94 17970608729168830306
5080951 261 18052800482423052444
5104073 3 18342185414846629320
513202 73 18340771455640540671
5937810 71 8717383993863951138
6058803 2 18267047019082122328
6431902 208 18339077086695105858
6691757 9 17700982033212500041
7970288 3 18412262865283085115

> <PUBCHEM_SHAPE_MULTIPOLES>
608.69
16.33
4.36
1.95
4.23
2.65
-0.85
-21.18
0.32
3.36
-0.54
-3.21
-0.97
-1.16

> <PUBCHEM_SHAPE_SELFOVERLAP>
1338.844

> <PUBCHEM_SHAPE_VOLUME>
324.3

> <PUBCHEM_COORDINATE_TYPE>
2
5
10

$$$$
