85469293
  -OEChem-02172602233D

 53 56  0     1  0  0  0  0  0999 V2000
    2.2732    0.3495   -0.2751 O   0  0  0  0  0  0  0  0  0  0  0  0
    0.6085    0.7417    1.3120 O   0  0  0  0  0  0  0  0  0  0  0  0
    4.0579    3.9633    0.5140 O   0  0  0  0  0  0  0  0  0  0  0  0
    4.6989    2.5446   -1.9216 O   0  0  0  0  0  0  0  0  0  0  0  0
    1.2486    3.4980    1.2700 O   0  0  0  0  0  0  0  0  0  0  0  0
    4.7127   -0.8093   -0.9038 O   0  0  0  0  0  0  0  0  0  0  0  0
   -1.8064   -1.6515   -0.1123 O   0  0  0  0  0  0  0  0  0  0  0  0
   -1.7301    2.2339    1.1129 O   0  0  0  0  0  0  0  0  0  0  0  0
   -4.2382    2.4930    0.4749 O   0  0  0  0  0  0  0  0  0  0  0  0
   -6.4622    1.2874   -0.5451 O   0  0  0  0  0  0  0  0  0  0  0  0
   -6.3749   -1.3584   -1.3430 O   0  0  0  0  0  0  0  0  0  0  0  0
    3.6974   -4.6383    0.5487 O   0  0  0  0  0  0  0  0  0  0  0  0
    3.1533    3.0808   -0.1518 C   0  0  1  0  0  0  0  0  0  0  0  0
    3.9751    1.9841   -0.8293 C   0  0  1  0  0  0  0  0  0  0  0  0
    2.1761    2.4913    0.8655 C   0  0  2  0  0  0  0  0  0  0  0  0
    3.0672    0.8652   -1.3451 C   0  0  1  0  0  0  0  0  0  0  0  0
    1.3877    1.3257    0.2684 C   0  0  1  0  0  0  0  0  0  0  0  0
    3.8725   -0.2952   -1.9210 C   0  0  0  0  0  0  0  0  0  0  0  0
   -0.5599    0.1951    0.8271 C   0  0  0  0  0  0  0  0  0  0  0  0
   -0.6568   -1.0806    0.4105 C   0  0  0  0  0  0  0  0  0  0  0  0
   -1.7571    1.0664    0.7473 C   0  0  0  0  0  0  0  0  0  0  0  0
   -2.9776    0.4508    0.2039 C   0  0  0  0  0  0  0  0  0  0  0  0
   -2.9374   -0.8818   -0.1996 C   0  0  0  0  0  0  0  0  0  0  0  0
    0.4832   -2.0141    0.4467 C   0  0  0  0  0  0  0  0  0  0  0  0
   -4.1595    1.1872    0.0906 C   0  0  0  0  0  0  0  0  0  0  0  0
   -4.0814   -1.4880   -0.7198 C   0  0  0  0  0  0  0  0  0  0  0  0
   -5.3024    0.5786   -0.4297 C   0  0  0  0  0  0  0  0  0  0  0  0
    1.0996   -2.3152    1.6612 C   0  0  0  0  0  0  0  0  0  0  0  0
    0.9467   -2.5952   -0.7335 C   0  0  0  0  0  0  0  0  0  0  0  0
   -5.2637   -0.7563   -0.8341 C   0  0  0  0  0  0  0  0  0  0  0  0
    2.1796   -3.1971    1.6955 C   0  0  0  0  0  0  0  0  0  0  0  0
    2.0266   -3.4772   -0.6994 C   0  0  0  0  0  0  0  0  0  0  0  0
    2.6430   -3.7783    0.5152 C   0  0  0  0  0  0  0  0  0  0  0  0
    2.6252    3.6892   -0.8953 H   0  0  0  0  0  0  0  0  0  0  0  0
    4.7116    1.5971   -0.1153 H   0  0  0  0  0  0  0  0  0  0  0  0
    2.7088    2.1707    1.7687 H   0  0  0  0  0  0  0  0  0  0  0  0
    2.4063    1.2372   -2.1393 H   0  0  0  0  0  0  0  0  0  0  0  0
    0.7301    1.7037   -0.5293 H   0  0  0  0  0  0  0  0  0  0  0  0
    4.4889    0.0229   -2.7672 H   0  0  0  0  0  0  0  0  0  0  0  0
    3.2068   -1.0983   -2.2501 H   0  0  0  0  0  0  0  0  0  0  0  0
    4.5280    3.4559    1.1975 H   0  0  0  0  0  0  0  0  0  0  0  0
    4.0550    2.8904   -2.5631 H   0  0  0  0  0  0  0  0  0  0  0  0
    0.7596    3.7917    0.4824 H   0  0  0  0  0  0  0  0  0  0  0  0
    5.2006   -1.5585   -1.2862 H   0  0  0  0  0  0  0  0  0  0  0  0
   -4.0456   -2.5284   -1.0335 H   0  0  0  0  0  0  0  0  0  0  0  0
    0.7493   -1.8783    2.5933 H   0  0  0  0  0  0  0  0  0  0  0  0
    0.4808   -2.3674   -1.6892 H   0  0  0  0  0  0  0  0  0  0  0  0
    2.6551   -3.4286    2.6447 H   0  0  0  0  0  0  0  0  0  0  0  0
    2.3798   -3.9213   -1.6262 H   0  0  0  0  0  0  0  0  0  0  0  0
   -3.3876    2.8016    0.8217 H   0  0  0  0  0  0  0  0  0  0  0  0
   -7.1426    0.7041   -0.9240 H   0  0  0  0  0  0  0  0  0  0  0  0
   -6.1614   -2.2802   -1.5682 H   0  0  0  0  0  0  0  0  0  0  0  0
    3.8842   -4.9429   -0.3560 H   0  0  0  0  0  0  0  0  0  0  0  0
  1 16  1  0  0  0  0
  1 17  1  0  0  0  0
  2 17  1  0  0  0  0
  2 19  1  0  0  0  0
  3 13  1  0  0  0  0
  3 41  1  0  0  0  0
  4 14  1  0  0  0  0
  4 42  1  0  0  0  0
  5 15  1  0  0  0  0
  5 43  1  0  0  0  0
  6 18  1  0  0  0  0
  6 44  1  0  0  0  0
  7 20  1  0  0  0  0
  7 23  1  0  0  0  0
  8 21  2  0  0  0  0
  9 25  1  0  0  0  0
  9 50  1  0  0  0  0
 10 27  1  0  0  0  0
 10 51  1  0  0  0  0
 11 30  1  0  0  0  0
 11 52  1  0  0  0  0
 12 33  1  0  0  0  0
 12 53  1  0  0  0  0
 13 14  1  0  0  0  0
 13 15  1  0  0  0  0
 13 34  1  0  0  0  0
 14 16  1  0  0  0  0
 14 35  1  0  0  0  0
 15 17  1  0  0  0  0
 15 36  1  0  0  0  0
 16 18  1  0  0  0  0
 16 37  1  0  0  0  0
 17 38  1  0  0  0  0
 18 39  1  0  0  0  0
 18 40  1  0  0  0  0
 19 20  2  0  0  0  0
 19 21  1  0  0  0  0
 20 24  1  0  0  0  0
 21 22  1  0  0  0  0
 22 23  2  0  0  0  0
 22 25  1  0  0  0  0
 23 26  1  0  0  0  0
 24 28  2  0  0  0  0
 24 29  1  0  0  0  0
 25 27  2  0  0  0  0
 26 30  2  0  0  0  0
 26 45  1  0  0  0  0
 27 30  1  0  0  0  0
 28 31  1  0  0  0  0
 28 46  1  0  0  0  0
 29 32  2  0  0  0  0
 29 47  1  0  0  0  0
 31 33  2  0  0  0  0
 31 48  1  0  0  0  0
 32 33  1  0  0  0  0
 32 49  1  0  0  0  0
M  END
> <PUBCHEM_COMPOUND_CID>
85469293

> <PUBCHEM_CONFORMER_RMSD>
0.8

> <PUBCHEM_CONFORMER_DIVERSEORDER>
1
3
43
20
32
15
42
31
29
5
33
38
6
10
34
22
21
41
23
4
7
12
27
17
8
37
19
2
24
40
9
25
35
11
18
16
36
28
39
14
30
26
13

> <PUBCHEM_MMFF94_PARTIAL_CHARGES>
46
1 -0.56
10 -0.53
11 -0.53
12 -0.53
13 0.28
14 0.28
15 0.28
16 0.28
17 0.56
18 0.28
19 0.09
2 -0.36
20 0.05
21 0.47
22 0.09
23 0.08
24 0.03
25 0.08
26 -0.15
27 0.08
28 -0.15
29 -0.15
3 -0.68
30 0.08
31 -0.15
32 -0.15
33 0.08
4 -0.68
41 0.4
42 0.4
43 0.4
44 0.4
45 0.15
46 0.15
47 0.15
48 0.15
49 0.15
5 -0.68
50 0.45
51 0.45
52 0.45
53 0.45
6 -0.68
7 -0.16
8 -0.57
9 -0.53

> <PUBCHEM_EFFECTIVE_ROTOR_COUNT>
5.2

> <PUBCHEM_PHARMACOPHORE_FEATURES>
20
1 1 acceptor
1 10 donor
1 11 donor
1 12 donor
1 2 acceptor
1 3 acceptor
1 3 donor
1 4 acceptor
1 4 donor
1 5 acceptor
1 5 donor
1 6 acceptor
1 6 donor
1 7 acceptor
1 8 acceptor
1 9 donor
6 1 13 14 15 16 17 rings
6 22 23 25 26 27 30 rings
6 24 28 29 31 32 33 rings
6 7 19 20 21 22 23 rings

> <PUBCHEM_HEAVY_ATOM_COUNT>
33

> <PUBCHEM_ATOM_DEF_STEREO_COUNT>
5

> <PUBCHEM_ATOM_UDEF_STEREO_COUNT>
0

> <PUBCHEM_BOND_DEF_STEREO_COUNT>
0

> <PUBCHEM_BOND_UDEF_STEREO_COUNT>
0

> <PUBCHEM_ISOTOPIC_ATOM_COUNT>
0

> <PUBCHEM_COMPONENT_COUNT>
1

> <PUBCHEM_CACTVS_TAUTO_COUNT>
26

> <PUBCHEM_CONFORMER_ID>
0518286D00000001

> <PUBCHEM_MMFF94_ENERGY>
103.8601

> <PUBCHEM_FEATURE_SELFOVERLAP>
101.612

> <PUBCHEM_SHAPE_FINGERPRINT>
10190108 129 17904775723737882619
10305334 12 17047341392904223112
10554248 39 18193814017755037397
10675989 125 18341055193965575760
10721379 63 18409730616862648962
11227688 84 18053656156458810143
11578080 2 17677603164799381717
12035759 4 18272658917607020115
12156800 1 15551312805541576870
12730499 353 18335993042609889523
13004483 165 17253140935386537906
133893 2 18188500068439347858
13540713 5 18272930489138200129
140371 6 17911517597978048707
14068700 675 17904200330952799162
14114211 68 18116737233696341229
14117953 113 17477202731137095045
14931854 50 18269573739972996868
1813 80 18048586032657833571
18681886 176 18200871786530023246
19026451 147 18338797784892758250
20567600 347 18263358243142147410
21133410 230 17464575200695521074
22393880 68 18341331171362158599
23366157 5 18261384516812491251
23559900 14 18268976614996501251
238 59 18339936999176723354
25147074 1 18199192785202998201
3298306 158 18338519745799732898
4046055 25 17834673790838053150
4058900 60 18187941620049365998
463206 1 18265344914941330434
513532 50 18060133216011293390
5895379 119 17771913722789446267
6669772 16 18197774604060388952
6700243 42 17124532194790461822
67856867 119 18410004416975563339
7471813 234 17974854965074766458
9981440 41 18191864737092073443

> <PUBCHEM_SHAPE_MULTIPOLES>
608.69
11.42
5.18
1.45
15.24
1.73
-0.12
-3.41
-5.48
-7.89
1.36
-1.12
0.08
-1.62

> <PUBCHEM_SHAPE_SELFOVERLAP>
1342.443

> <PUBCHEM_SHAPE_VOLUME>
322.9

> <PUBCHEM_COORDINATE_TYPE>
2
5
10

$$$$
