10735190
  -OEChem-02172602353D

 50 52  0     1  0  0  0  0  0999 V2000
   -2.3309    2.8474    0.0423 O   0  0  0  0  0  0  0  0  0  0  0  0
    0.9469   -2.8565   -0.3278 O   0  0  0  0  0  0  0  0  0  0  0  0
    0.2916    3.0885   -0.1304 O   0  0  0  0  0  0  0  0  0  0  0  0
    3.5291   -2.3152   -0.0289 O   0  0  0  0  0  0  0  0  0  0  0  0
   -1.1924   -0.8022   -0.2927 C   0  0  2  0  0  0  0  0  0  0  0  0
   -3.6492    0.1338    0.0352 C   0  0  0  0  0  0  0  0  0  0  0  0
   -2.1157    0.4297   -0.0982 C   0  0  0  0  0  0  0  0  0  0  0  0
   -1.5359   -1.9244    0.7360 C   0  0  0  0  0  0  0  0  0  0  0  0
   -3.9441   -1.3828    0.2228 C   0  0  0  0  0  0  0  0  0  0  0  0
   -2.9844   -2.0319    1.1943 C   0  0  0  0  0  0  0  0  0  0  0  0
    0.3121   -0.4996   -0.1434 C   0  0  0  0  0  0  0  0  0  0  0  0
   -1.3501   -1.3036   -1.7544 C   0  0  0  0  0  0  0  0  0  0  0  0
   -4.2594    0.8436    1.2773 C   0  0  0  0  0  0  0  0  0  0  0  0
   -4.4228    0.5725   -1.2290 C   0  0  0  0  0  0  0  0  0  0  0  0
   -1.5982    1.6829   -0.0438 C   0  0  0  0  0  0  0  0  0  0  0  0
    0.7921    0.8063   -0.0549 C   0  0  0  0  0  0  0  0  0  0  0  0
   -0.1367    1.9387   -0.0861 C   0  0  0  0  0  0  0  0  0  0  0  0
    1.2651   -1.5427   -0.1346 C   0  0  0  0  0  0  0  0  0  0  0  0
    2.1681    1.0685    0.0559 C   0  0  0  0  0  0  0  0  0  0  0  0
    3.0847    0.0213    0.0753 C   0  0  0  0  0  0  0  0  0  0  0  0
    2.6330   -1.2871   -0.0224 C   0  0  0  0  0  0  0  0  0  0  0  0
    4.5415    0.3263    0.1927 C   0  0  0  0  0  0  0  0  0  0  0  0
    4.8884    1.0383    1.5134 C   0  0  0  0  0  0  0  0  0  0  0  0
    5.0673    1.1481   -0.9988 C   0  0  0  0  0  0  0  0  0  0  0  0
   -0.9227   -1.8244    1.6428 H   0  0  0  0  0  0  0  0  0  0  0  0
   -1.2855   -2.9042    0.3118 H   0  0  0  0  0  0  0  0  0  0  0  0
   -3.9151   -1.9221   -0.7297 H   0  0  0  0  0  0  0  0  0  0  0  0
   -4.9701   -1.5287    0.5869 H   0  0  0  0  0  0  0  0  0  0  0  0
   -3.2492   -3.0875    1.3307 H   0  0  0  0  0  0  0  0  0  0  0  0
   -3.0862   -1.5722    2.1844 H   0  0  0  0  0  0  0  0  0  0  0  0
   -0.9958   -0.5472   -2.4673 H   0  0  0  0  0  0  0  0  0  0  0  0
   -0.7837   -2.2185   -1.9556 H   0  0  0  0  0  0  0  0  0  0  0  0
   -2.3816   -1.5270   -2.0286 H   0  0  0  0  0  0  0  0  0  0  0  0
   -3.6643    0.6645    2.1792 H   0  0  0  0  0  0  0  0  0  0  0  0
   -4.3266    1.9268    1.1358 H   0  0  0  0  0  0  0  0  0  0  0  0
   -5.2814    0.4994    1.4747 H   0  0  0  0  0  0  0  0  0  0  0  0
   -4.3507    1.6545   -1.3848 H   0  0  0  0  0  0  0  0  0  0  0  0
   -4.0375    0.0868   -2.1313 H   0  0  0  0  0  0  0  0  0  0  0  0
   -5.4876    0.3257   -1.1458 H   0  0  0  0  0  0  0  0  0  0  0  0
    2.5205    2.0945    0.1276 H   0  0  0  0  0  0  0  0  0  0  0  0
   -1.7152    3.5999    0.0644 H   0  0  0  0  0  0  0  0  0  0  0  0
    5.1411   -0.5893    0.1838 H   0  0  0  0  0  0  0  0  0  0  0  0
    1.7557   -3.3959   -0.2983 H   0  0  0  0  0  0  0  0  0  0  0  0
    4.4296    2.0305    1.5793 H   0  0  0  0  0  0  0  0  0  0  0  0
    5.9723    1.1678    1.6066 H   0  0  0  0  0  0  0  0  0  0  0  0
    4.5456    0.4513    2.3728 H   0  0  0  0  0  0  0  0  0  0  0  0
    4.8505    0.6420   -1.9462 H   0  0  0  0  0  0  0  0  0  0  0  0
    6.1529    1.2769   -0.9277 H   0  0  0  0  0  0  0  0  0  0  0  0
    4.6176    2.1458   -1.0407 H   0  0  0  0  0  0  0  0  0  0  0  0
    4.1635   -2.1775    0.6944 H   0  0  0  0  0  0  0  0  0  0  0  0
  1 15  1  0  0  0  0
  1 41  1  0  0  0  0
  2 18  1  0  0  0  0
  2 43  1  0  0  0  0
  3 17  2  0  0  0  0
  4 21  1  0  0  0  0
  4 50  1  0  0  0  0
  5  7  1  0  0  0  0
  5  8  1  0  0  0  0
  5 11  1  0  0  0  0
  5 12  1  0  0  0  0
  6  7  1  0  0  0  0
  6  9  1  0  0  0  0
  6 13  1  0  0  0  0
  6 14  1  0  0  0  0
  7 15  2  0  0  0  0
  8 10  1  0  0  0  0
  8 25  1  0  0  0  0
  8 26  1  0  0  0  0
  9 10  1  0  0  0  0
  9 27  1  0  0  0  0
  9 28  1  0  0  0  0
 10 29  1  0  0  0  0
 10 30  1  0  0  0  0
 11 16  1  0  0  0  0
 11 18  2  0  0  0  0
 12 31  1  0  0  0  0
 12 32  1  0  0  0  0
 12 33  1  0  0  0  0
 13 34  1  0  0  0  0
 13 35  1  0  0  0  0
 13 36  1  0  0  0  0
 14 37  1  0  0  0  0
 14 38  1  0  0  0  0
 14 39  1  0  0  0  0
 15 17  1  0  0  0  0
 16 17  1  0  0  0  0
 16 19  2  0  0  0  0
 18 21  1  0  0  0  0
 19 20  1  0  0  0  0
 19 40  1  0  0  0  0
 20 21  2  0  0  0  0
 20 22  1  0  0  0  0
 22 23  1  0  0  0  0
 22 24  1  0  0  0  0
 22 42  1  0  0  0  0
 23 44  1  0  0  0  0
 23 45  1  0  0  0  0
 23 46  1  0  0  0  0
 24 47  1  0  0  0  0
 24 48  1  0  0  0  0
 24 49  1  0  0  0  0
M  END
> <PUBCHEM_COMPOUND_CID>
10735190

> <PUBCHEM_CONFORMER_RMSD>
0.6

> <PUBCHEM_CONFORMER_DIVERSEORDER>
1

> <PUBCHEM_MMFF94_PARTIAL_CHARGES>
20
1 -0.53
11 -0.14
15 0.09
16 0.09
17 0.47
18 0.08
19 -0.15
2 -0.53
20 -0.14
21 0.08
22 0.14
3 -0.57
4 -0.53
40 0.15
41 0.45
43 0.45
5 0.28
50 0.45
6 0.14
7 -0.28

> <PUBCHEM_EFFECTIVE_ROTOR_COUNT>
1.8

> <PUBCHEM_PHARMACOPHORE_FEATURES>
9
1 1 donor
1 2 donor
1 3 acceptor
1 4 donor
3 22 23 24 hydrophobe
3 6 13 14 hydrophobe
6 11 16 18 19 20 21 rings
6 5 6 7 8 9 10 rings
6 5 7 11 15 16 17 rings

> <PUBCHEM_HEAVY_ATOM_COUNT>
24

> <PUBCHEM_ATOM_DEF_STEREO_COUNT>
1

> <PUBCHEM_ATOM_UDEF_STEREO_COUNT>
0

> <PUBCHEM_BOND_DEF_STEREO_COUNT>
0

> <PUBCHEM_BOND_UDEF_STEREO_COUNT>
0

> <PUBCHEM_ISOTOPIC_ATOM_COUNT>
0

> <PUBCHEM_COMPONENT_COUNT>
1

> <PUBCHEM_CACTVS_TAUTO_COUNT>
154

> <PUBCHEM_CONFORMER_ID>
00A3CE5600000001

> <PUBCHEM_MMFF94_ENERGY>
90.5312

> <PUBCHEM_FEATURE_SELFOVERLAP>
45.718

> <PUBCHEM_SHAPE_FINGERPRINT>
10366900 7 18272081712583387937
10411042 1 17257935322139514942
10498660 4 18408609171237623956
10616163 171 18409736183124323054
10670039 82 18335433344337433244
10675989 125 17035547576050733813
10759866 29 17967254217554135234
10863032 1 18410857616207129651
10906281 52 18339656555229670461
10967382 1 18410575067493772262
11112241 14 16556196090112212424
11132069 177 18334856116999648003
11578080 2 16951959545004688990
12011746 2 18412543219409793133
12236239 1 17775000160020123133
12553582 1 18409457989682312393
12633257 1 18118986890827793771
12788726 201 18337383842640089633
13140716 1 18194687183783660193
13214271 11 18410290349959470319
13221675 6 18411698794141888358
13224815 77 18413105061293267834
14223421 5 18267589009145758726
14341114 328 18040719190480401328
14787075 74 18042128819942365778
14790565 3 18194131926275317620
15163728 17 14619414913617624033
15196674 1 18410857629229220491
15209294 21 17845664659529703633
15375358 24 18408037411868532371
15536298 74 18343021047703931134
1601671 61 18409453613374141532
16945 1 18409177601622146733
17349148 13 18040433304756893548
1813 80 17095531702958393863
19591789 44 17905056102573856972
19784866 170 18410581686175668418
200 152 18059848485496526959
20028762 73 17841718705466408895
20510252 161 18342175505708067969
20715895 44 17751344089549105645
21033648 29 17704067429968561482
21267235 1 18337964496685847483
21421861 104 17969499316944792810
22182313 1 18342469113988216070
2334 1 17906173206688494101
23402539 116 18338786901044125566
23558518 356 18190187784312330809
23559900 14 18335702689957149614
2748010 2 18340770347090566046
335352 9 18409167714523185069
34934 24 18409722950562166667
350125 39 18339644430853180002
5104073 3 18411982421024101586
59755656 215 18410573947441342142
9709674 26 18196937673495234982

> <PUBCHEM_SHAPE_MULTIPOLES>
470.43
9.15
2.82
1.12
5.36
0.2
-0.03
1.25
1.12
-0.38
0.07
-0.29
-0.1
0.36

> <PUBCHEM_SHAPE_SELFOVERLAP>
1017.785

> <PUBCHEM_SHAPE_VOLUME>
257

> <PUBCHEM_COORDINATE_TYPE>
2
5
10

$$$$
