13919629
  -OEChem-02172602333D

 41 41  0     1  0  0  0  0  0999 V2000
    0.9647   -0.5043   -0.6148 O   0  0  0  0  0  0  0  0  0  0  0  0
    0.7273    2.7627    0.8306 O   0  0  0  0  0  0  0  0  0  0  0  0
    0.7823    0.9013   -0.7240 C   0  0  1  0  0  0  0  0  0  0  0  0
    2.1190   -1.0275    0.0463 C   0  0  2  0  0  0  0  0  0  0  0  0
    2.3693   -0.3054    1.3783 C   0  0  0  0  0  0  0  0  0  0  0  0
    2.4813    1.1983    1.2069 C   0  0  0  0  0  0  0  0  0  0  0  0
   -0.7359    1.0817   -0.8768 C   0  0  0  0  0  0  0  0  0  0  0  0
    1.2547    1.7016    0.4951 C   0  0  0  0  0  0  0  0  0  0  0  0
    1.4638    1.4451   -1.9824 C   0  0  0  0  0  0  0  0  0  0  0  0
    3.3449   -1.0224   -0.8721 C   0  0  0  0  0  0  0  0  0  0  0  0
   -1.4767    0.5475    0.3438 C   0  0  0  0  0  0  0  0  0  0  0  0
    1.7934   -2.4696    0.3412 C   0  0  0  0  0  0  0  0  0  0  0  0
   -2.9612    0.7162    0.1850 C   0  0  0  0  0  0  0  0  0  0  0  0
    0.6442   -3.0623    0.0001 C   0  0  0  0  0  0  0  0  0  0  0  0
   -3.8969   -0.2495    0.1127 C   0  0  0  0  0  0  0  0  0  0  0  0
   -5.3719   -0.0125   -0.0469 C   0  0  0  0  0  0  0  0  0  0  0  0
   -3.5023   -1.7009    0.1771 C   0  0  0  0  0  0  0  0  0  0  0  0
    3.2735   -0.6882    1.8680 H   0  0  0  0  0  0  0  0  0  0  0  0
    1.5294   -0.5007    2.0606 H   0  0  0  0  0  0  0  0  0  0  0  0
    3.3673    1.4841    0.6331 H   0  0  0  0  0  0  0  0  0  0  0  0
    2.5449    1.6777    2.1896 H   0  0  0  0  0  0  0  0  0  0  0  0
   -0.9908    2.1380   -1.0354 H   0  0  0  0  0  0  0  0  0  0  0  0
   -1.0814    0.5328   -1.7641 H   0  0  0  0  0  0  0  0  0  0  0  0
    1.1079    2.4528   -2.2254 H   0  0  0  0  0  0  0  0  0  0  0  0
    2.5467    1.5259   -1.8606 H   0  0  0  0  0  0  0  0  0  0  0  0
    1.2818    0.7921   -2.8429 H   0  0  0  0  0  0  0  0  0  0  0  0
    4.1683   -1.6123   -0.4523 H   0  0  0  0  0  0  0  0  0  0  0  0
    3.0974   -1.4301   -1.8596 H   0  0  0  0  0  0  0  0  0  0  0  0
    3.7357   -0.0171   -1.0404 H   0  0  0  0  0  0  0  0  0  0  0  0
   -1.1953    1.1042    1.2449 H   0  0  0  0  0  0  0  0  0  0  0  0
   -1.2077   -0.4910    0.5484 H   0  0  0  0  0  0  0  0  0  0  0  0
    2.5382   -3.0588    0.8721 H   0  0  0  0  0  0  0  0  0  0  0  0
   -3.3008    1.7500    0.1319 H   0  0  0  0  0  0  0  0  0  0  0  0
    0.4856   -4.1057    0.2552 H   0  0  0  0  0  0  0  0  0  0  0  0
   -0.1576   -2.5679   -0.5331 H   0  0  0  0  0  0  0  0  0  0  0  0
   -5.6082    1.0565   -0.0661 H   0  0  0  0  0  0  0  0  0  0  0  0
   -5.9221   -0.4615    0.7863 H   0  0  0  0  0  0  0  0  0  0  0  0
   -5.7317   -0.4511   -0.9832 H   0  0  0  0  0  0  0  0  0  0  0  0
   -2.5397   -1.9019   -0.2997 H   0  0  0  0  0  0  0  0  0  0  0  0
   -4.2315   -2.3205   -0.3573 H   0  0  0  0  0  0  0  0  0  0  0  0
   -3.4718   -2.0414    1.2167 H   0  0  0  0  0  0  0  0  0  0  0  0
  1  3  1  0  0  0  0
  1  4  1  0  0  0  0
  2  8  2  0  0  0  0
  3  7  1  0  0  0  0
  3  8  1  0  0  0  0
  3  9  1  0  0  0  0
  4  5  1  0  0  0  0
  4 10  1  0  0  0  0
  4 12  1  0  0  0  0
  5  6  1  0  0  0  0
  5 18  1  0  0  0  0
  5 19  1  0  0  0  0
  6  8  1  0  0  0  0
  6 20  1  0  0  0  0
  6 21  1  0  0  0  0
  7 11  1  0  0  0  0
  7 22  1  0  0  0  0
  7 23  1  0  0  0  0
  9 24  1  0  0  0  0
  9 25  1  0  0  0  0
  9 26  1  0  0  0  0
 10 27  1  0  0  0  0
 10 28  1  0  0  0  0
 10 29  1  0  0  0  0
 11 13  1  0  0  0  0
 11 30  1  0  0  0  0
 11 31  1  0  0  0  0
 12 14  2  0  0  0  0
 12 32  1  0  0  0  0
 13 15  2  0  0  0  0
 13 33  1  0  0  0  0
 14 34  1  0  0  0  0
 14 35  1  0  0  0  0
 15 16  1  0  0  0  0
 15 17  1  0  0  0  0
 16 36  1  0  0  0  0
 16 37  1  0  0  0  0
 16 38  1  0  0  0  0
 17 39  1  0  0  0  0
 17 40  1  0  0  0  0
 17 41  1  0  0  0  0
M  END
> <PUBCHEM_COMPOUND_CID>
13919629

> <PUBCHEM_CONFORMER_RMSD>
0.6

> <PUBCHEM_CONFORMER_DIVERSEORDER>
4
46
39
44
14
30
40
50
17
15
58
51
47
35
33
54
43
23
29
45
41
49
11
12
56
36
21
24
48
27
37
32
31
22
16
3
42
18
19
38
34
52
28
26
2
13
5
10
53
25
8
20
9
7
6
57
55
1

> <PUBCHEM_MMFF94_PARTIAL_CHARGES>
17
1 -0.56
11 0.14
12 -0.29
13 -0.29
14 -0.3
15 -0.28
16 0.14
17 0.14
2 -0.57
3 0.34
32 0.15
33 0.15
34 0.15
35 0.15
4 0.42
6 0.06
8 0.45

> <PUBCHEM_EFFECTIVE_ROTOR_COUNT>
5

> <PUBCHEM_PHARMACOPHORE_FEATURES>
5
1 1 acceptor
1 14 hydrophobe
1 2 acceptor
3 15 16 17 hydrophobe
6 1 3 4 5 6 8 rings

> <PUBCHEM_HEAVY_ATOM_COUNT>
17

> <PUBCHEM_ATOM_DEF_STEREO_COUNT>
2

> <PUBCHEM_ATOM_UDEF_STEREO_COUNT>
0

> <PUBCHEM_BOND_DEF_STEREO_COUNT>
0

> <PUBCHEM_BOND_UDEF_STEREO_COUNT>
0

> <PUBCHEM_ISOTOPIC_ATOM_COUNT>
0

> <PUBCHEM_COMPONENT_COUNT>
1

> <PUBCHEM_CACTVS_TAUTO_COUNT>
2

> <PUBCHEM_CONFORMER_ID>
00D4658D00000004

> <PUBCHEM_MMFF94_ENERGY>
41.1145

> <PUBCHEM_FEATURE_SELFOVERLAP>
25.371

> <PUBCHEM_SHAPE_FINGERPRINT>
11067466 332 18334575728876490518
12506688 2 18265616485380435091
12553582 1 18339082571283446723
12616999 72 17895771715189057493
13464513 79 18259988179868196758
13533116 47 18342175566834174203
14004458 79 16155380945497176716
14142880 1 10121733484545241018
14178342 30 18192420879564560665
14251717 144 18410852170557999859
14251764 30 17416414160478909614
14350558 41 18407761426197616617
14787075 74 18341897415814056068
14863182 85 18412833468830986478
16945 1 18123462779194203536
17492 54 17460062684789306022
20559304 39 18412831278592473781
20645477 70 18041001769553844063
21730867 7 18341610451394387425
2255824 54 18334584580704029941
231179 274 11312056517721398355
23558518 356 17109311045140822316
23559900 14 18410290333259700909
3060560 45 17968390051256201556
33824 294 18411131463617438787
4175511 376 15647636539246714732
6443956 14 18337952260476703161
7364860 26 18413389856105482113
9709674 26 18338234989884967003

> <PUBCHEM_SHAPE_MULTIPOLES>
338.11
6.95
2.76
1.25
11.53
1.22
-0.23
1.67
0.4
-1.53
0.17
-1.05
-0.57
0.19

> <PUBCHEM_SHAPE_SELFOVERLAP>
674.257

> <PUBCHEM_SHAPE_VOLUME>
201

> <PUBCHEM_COORDINATE_TYPE>
2
5
10

$$$$
