638062
  -OEChem-03052615053D

 23 25  0     1  0  0  0  0  0999 V2000
   -1.1353    1.0144    0.0820 C   0  0  0  0  0  0  0  0  0  0  0  0
   -1.1349   -1.0145    0.0815 C   0  0  0  0  0  0  0  0  0  0  0  0
    0.1995    0.7710   -0.6246 C   0  0  2  0  0  0  0  0  0  0  0  0
    0.2000   -0.7703   -0.6248 C   0  0  1  0  0  0  0  0  0  0  0  0
   -2.1044   -0.0002   -0.6168 C   0  0  0  0  0  0  0  0  0  0  0  0
   -1.2330   -0.0004    1.2717 C   0  0  0  0  0  0  0  0  0  0  0  0
    1.4256    1.2042    0.1669 C   0  0  0  0  0  0  0  0  0  0  0  0
    1.4259   -1.2042    0.1668 C   0  0  0  0  0  0  0  0  0  0  0  0
    2.3566    0.0000    0.0973 C   0  0  0  0  0  0  0  0  0  0  0  0
   -1.4798    2.0360    0.2375 H   0  0  0  0  0  0  0  0  0  0  0  0
   -1.4789   -2.0363    0.2365 H   0  0  0  0  0  0  0  0  0  0  0  0
    0.2102    1.1764   -1.6425 H   0  0  0  0  0  0  0  0  0  0  0  0
    0.2108   -1.1754   -1.6428 H   0  0  0  0  0  0  0  0  0  0  0  0
   -3.1415   -0.0005   -0.2602 H   0  0  0  0  0  0  0  0  0  0  0  0
   -2.1166    0.0000   -1.7114 H   0  0  0  0  0  0  0  0  0  0  0  0
   -0.4210   -0.0005    2.0022 H   0  0  0  0  0  0  0  0  0  0  0  0
   -2.1805   -0.0008    1.8248 H   0  0  0  0  0  0  0  0  0  0  0  0
    1.1850    1.4461    1.2077 H   0  0  0  0  0  0  0  0  0  0  0  0
    1.8920    2.0937   -0.2687 H   0  0  0  0  0  0  0  0  0  0  0  0
    1.8922   -2.0936   -0.2692 H   0  0  0  0  0  0  0  0  0  0  0  0
    1.1852   -1.4464    1.2075 H   0  0  0  0  0  0  0  0  0  0  0  0
    2.8964    0.0002   -0.8574 H   0  0  0  0  0  0  0  0  0  0  0  0
    3.0956    0.0001    0.9037 H   0  0  0  0  0  0  0  0  0  0  0  0
  1  3  1  0  0  0  0
  1  5  1  0  0  0  0
  1  6  1  0  0  0  0
  1 10  1  0  0  0  0
  2  4  1  0  0  0  0
  2  5  1  0  0  0  0
  2  6  1  0  0  0  0
  2 11  1  0  0  0  0
  3  4  1  0  0  0  0
  3  7  1  0  0  0  0
  3 12  1  0  0  0  0
  4  8  1  0  0  0  0
  4 13  1  0  0  0  0
  5 14  1  0  0  0  0
  5 15  1  0  0  0  0
  6 16  1  0  0  0  0
  6 17  1  0  0  0  0
  7  9  1  0  0  0  0
  7 18  1  0  0  0  0
  7 19  1  0  0  0  0
  8  9  1  0  0  0  0
  8 20  1  0  0  0  0
  8 21  1  0  0  0  0
  9 22  1  0  0  0  0
  9 23  1  0  0  0  0
M  END
> <PUBCHEM_COMPOUND_CID>
638062

> <PUBCHEM_CONFORMER_RMSD>
0.4

> <PUBCHEM_CONFORMER_DIVERSEORDER>
1

> <PUBCHEM_MMFF94_PARTIAL_CHARGES>
0

> <PUBCHEM_EFFECTIVE_ROTOR_COUNT>
1

> <PUBCHEM_PHARMACOPHORE_FEATURES>
2
5 3 4 7 8 9 rings
6 1 2 3 4 5 6 rings

> <PUBCHEM_HEAVY_ATOM_COUNT>
9

> <PUBCHEM_ATOM_DEF_STEREO_COUNT>
2

> <PUBCHEM_ATOM_UDEF_STEREO_COUNT>
0

> <PUBCHEM_BOND_DEF_STEREO_COUNT>
0

> <PUBCHEM_BOND_UDEF_STEREO_COUNT>
0

> <PUBCHEM_ISOTOPIC_ATOM_COUNT>
0

> <PUBCHEM_COMPONENT_COUNT>
1

> <PUBCHEM_CACTVS_TAUTO_COUNT>
1

> <PUBCHEM_CONFORMER_ID>
0009BC6E00000001

> <PUBCHEM_MMFF94_ENERGY>
37.8675

> <PUBCHEM_FEATURE_SELFOVERLAP>
10.341

> <PUBCHEM_SHAPE_FINGERPRINT>
12423570 1 10562882619090076043
13024252 1 16153703202511789294
16945 1 18410569587110214807
18185500 45 18269833284250360574
21040471 1 18410295791577298988
21922407 69 17275389810713970707
23552423 10 18260831514003177766
29004967 10 17967540077149064768
369184 2 18410004442502371354
5084963 1 18060418023396880730

> <PUBCHEM_SHAPE_MULTIPOLES>
185.22
2.64
1.3
0.93
0.53
0
0.15
0
0.06
0.23
-0.01
-0.28
0
0

> <PUBCHEM_SHAPE_SELFOVERLAP>
404.219

> <PUBCHEM_SHAPE_VOLUME>
101.1

> <PUBCHEM_COORDINATE_TYPE>
2
5
10

$$$$
