6428019
  -OEChem-03052615053D

 52 53  0     1  0  0  0  0  0999 V2000
    3.0210    3.2029    0.6874 O   0  0  0  0  0  0  0  0  0  0  0  0
    0.4263   -1.8269   -0.1174 O   0  0  0  0  0  0  0  0  0  0  0  0
   -2.9478   -3.0238   -0.2428 O   0  0  0  0  0  0  0  0  0  0  0  0
   -0.7975   -2.8382   -1.7868 O   0  0  0  0  0  0  0  0  0  0  0  0
   -1.3705    2.3513   -1.5078 O   0  0  0  0  0  0  0  0  0  0  0  0
   -1.7080    2.9728    0.6495 O   0  0  0  0  0  0  0  0  0  0  0  0
    4.0312    0.4696    0.8527 N   0  0  2  0  0  0  0  0  0  0  0  0
    2.6708    0.2010    0.2993 C   0  0  1  0  0  0  0  0  0  0  0  0
    2.3829    1.3227   -0.7012 C   0  0  0  0  0  0  0  0  0  0  0  0
    3.4352    2.3734   -0.3910 C   0  0  2  0  0  0  0  0  0  0  0  0
    4.6291    1.5382    0.0338 C   0  0  0  0  0  0  0  0  0  0  0  0
    2.7245   -1.1806   -0.2741 C   0  0  0  0  0  0  0  0  0  0  0  0
    4.7793   -0.8023    0.7568 C   0  0  0  0  0  0  0  0  0  0  0  0
    3.9103   -1.7387   -0.0144 C   0  0  0  0  0  0  0  0  0  0  0  0
    1.5718   -1.8014   -0.9749 C   0  0  0  0  0  0  0  0  0  0  0  0
   -1.8455   -2.3462    0.3600 C   0  0  2  0  0  0  0  0  0  0  0  0
   -2.2739   -0.8823    0.6868 C   0  0  1  0  0  0  0  0  0  0  0  0
   -0.7017   -2.3780   -0.6554 C   0  0  0  0  0  0  0  0  0  0  0  0
   -2.7380   -0.1171   -0.5829 C   0  0  0  0  0  0  0  0  0  0  0  0
   -1.4192   -3.1468    1.5960 C   0  0  0  0  0  0  0  0  0  0  0  0
   -3.3808   -0.8530    1.7589 C   0  0  0  0  0  0  0  0  0  0  0  0
   -3.1456    1.3194   -0.3300 C   0  0  0  0  0  0  0  0  0  0  0  0
   -4.3945    1.7406   -0.0519 C   0  0  0  0  0  0  0  0  0  0  0  0
   -2.0286    2.3093   -0.3261 C   0  0  0  0  0  0  0  0  0  0  0  0
   -4.8309    3.1338    0.2755 C   0  0  0  0  0  0  0  0  0  0  0  0
    1.9504    0.2361    1.1257 H   0  0  0  0  0  0  0  0  0  0  0  0
    1.3652    1.7063   -0.5779 H   0  0  0  0  0  0  0  0  0  0  0  0
    2.5052    0.9760   -1.7344 H   0  0  0  0  0  0  0  0  0  0  0  0
    3.6585    3.0107   -1.2519 H   0  0  0  0  0  0  0  0  0  0  0  0
    5.3527    2.1082    0.6246 H   0  0  0  0  0  0  0  0  0  0  0  0
    5.1242    1.1393   -0.8606 H   0  0  0  0  0  0  0  0  0  0  0  0
    5.7588   -0.6897    0.2792 H   0  0  0  0  0  0  0  0  0  0  0  0
    4.9423   -1.2004    1.7642 H   0  0  0  0  0  0  0  0  0  0  0  0
    4.2015   -2.7403   -0.2954 H   0  0  0  0  0  0  0  0  0  0  0  0
    1.8147   -2.8285   -1.2736 H   0  0  0  0  0  0  0  0  0  0  0  0
    1.3358   -1.2258   -1.8773 H   0  0  0  0  0  0  0  0  0  0  0  0
    2.2182    3.6715    0.4020 H   0  0  0  0  0  0  0  0  0  0  0  0
   -1.4052   -0.3525    1.1018 H   0  0  0  0  0  0  0  0  0  0  0  0
   -3.5912   -0.6430   -1.0320 H   0  0  0  0  0  0  0  0  0  0  0  0
   -1.9503   -0.1396   -1.3449 H   0  0  0  0  0  0  0  0  0  0  0  0
   -0.9432   -4.0906    1.3025 H   0  0  0  0  0  0  0  0  0  0  0  0
   -2.2795   -3.4254    2.2136 H   0  0  0  0  0  0  0  0  0  0  0  0
   -0.7027   -2.5932    2.2117 H   0  0  0  0  0  0  0  0  0  0  0  0
   -3.6006    0.1685    2.0829 H   0  0  0  0  0  0  0  0  0  0  0  0
   -3.0777   -1.3868    2.6643 H   0  0  0  0  0  0  0  0  0  0  0  0
   -4.3077   -1.3051    1.3910 H   0  0  0  0  0  0  0  0  0  0  0  0
   -2.7017   -3.9570   -0.3625 H   0  0  0  0  0  0  0  0  0  0  0  0
   -5.1888    0.9965   -0.0326 H   0  0  0  0  0  0  0  0  0  0  0  0
   -5.1435    3.1881    1.3227 H   0  0  0  0  0  0  0  0  0  0  0  0
   -5.6896    3.4006   -0.3492 H   0  0  0  0  0  0  0  0  0  0  0  0
   -4.0605    3.8889    0.1042 H   0  0  0  0  0  0  0  0  0  0  0  0
   -0.6253    2.9890   -1.4909 H   0  0  0  0  0  0  0  0  0  0  0  0
  1 10  1  0  0  0  0
  1 37  1  0  0  0  0
  2 15  1  0  0  0  0
  2 18  1  0  0  0  0
  3 16  1  0  0  0  0
  3 47  1  0  0  0  0
  4 18  2  0  0  0  0
  5 24  1  0  0  0  0
  5 52  1  0  0  0  0
  6 24  2  0  0  0  0
  7  8  1  0  0  0  0
  7 11  1  0  0  0  0
  7 13  1  0  0  0  0
  8  9  1  0  0  0  0
  8 12  1  0  0  0  0
  8 26  1  0  0  0  0
  9 10  1  0  0  0  0
  9 27  1  0  0  0  0
  9 28  1  0  0  0  0
 10 11  1  0  0  0  0
 10 29  1  0  0  0  0
 11 30  1  0  0  0  0
 11 31  1  0  0  0  0
 12 14  2  0  0  0  0
 12 15  1  0  0  0  0
 13 14  1  0  0  0  0
 13 32  1  0  0  0  0
 13 33  1  0  0  0  0
 14 34  1  0  0  0  0
 15 35  1  0  0  0  0
 15 36  1  0  0  0  0
 16 17  1  0  0  0  0
 16 18  1  0  0  0  0
 16 20  1  0  0  0  0
 17 19  1  0  0  0  0
 17 21  1  0  0  0  0
 17 38  1  0  0  0  0
 19 22  1  0  0  0  0
 19 39  1  0  0  0  0
 19 40  1  0  0  0  0
 20 41  1  0  0  0  0
 20 42  1  0  0  0  0
 20 43  1  0  0  0  0
 21 44  1  0  0  0  0
 21 45  1  0  0  0  0
 21 46  1  0  0  0  0
 22 23  2  0  0  0  0
 22 24  1  0  0  0  0
 23 25  1  0  0  0  0
 23 48  1  0  0  0  0
 25 49  1  0  0  0  0
 25 50  1  0  0  0  0
 25 51  1  0  0  0  0
M  END
> <PUBCHEM_COMPOUND_CID>
6428019

> <PUBCHEM_CONFORMER_RMSD>
1.4

> <PUBCHEM_CONFORMER_DIVERSEORDER>
1
46
133
7
56
113
117
91
84
67
10
119
43
77
19
127
130
27
30
28
118
63
66
134
29
22
122
17
98
6
69
79
123
73
47
94
89
33
103
41
50
25
76
13
93
95
111
36
70
20
60
80
12
90
51
8
40
137
132
15
115
44
48
54
45
23
5
112
61
74
26
114
49
82
126
120
78
101
64
86
88
136
85
124
32
110
3
83
4
107
121
72
102
38
42
104
87
14
105
65
31
39
21
62
18
16
59
81
109
97
11
53
108
128
55
138
100
68
52
34
35
96
135
131
106
92
116
9
75
99
57
24
37
71
129
125
58
2

> <PUBCHEM_MMFF94_PARTIAL_CHARGES>
26
1 -0.68
10 0.28
11 0.27
12 -0.28
13 0.41
14 -0.29
15 0.42
16 0.34
18 0.66
19 0.14
2 -0.43
22 -0.12
23 -0.29
24 0.71
25 0.14
3 -0.68
34 0.15
37 0.4
4 -0.57
47 0.4
48 0.15
5 -0.65
52 0.5
6 -0.57
7 -0.81
8 0.41

> <PUBCHEM_EFFECTIVE_ROTOR_COUNT>
8.8

> <PUBCHEM_PHARMACOPHORE_FEATURES>
13
1 1 acceptor
1 1 donor
1 21 hydrophobe
1 25 hydrophobe
1 3 acceptor
1 3 donor
1 4 acceptor
1 5 acceptor
1 6 acceptor
1 7 cation
3 5 6 24 anion
5 7 8 12 13 14 rings
5 7 8 9 10 11 rings

> <PUBCHEM_HEAVY_ATOM_COUNT>
25

> <PUBCHEM_ATOM_DEF_STEREO_COUNT>
1

> <PUBCHEM_ATOM_UDEF_STEREO_COUNT>
3

> <PUBCHEM_BOND_DEF_STEREO_COUNT>
1

> <PUBCHEM_BOND_UDEF_STEREO_COUNT>
0

> <PUBCHEM_ISOTOPIC_ATOM_COUNT>
0

> <PUBCHEM_COMPONENT_COUNT>
1

> <PUBCHEM_CACTVS_TAUTO_COUNT>
1

> <PUBCHEM_CONFORMER_ID>
0062157300000001

> <PUBCHEM_MMFF94_ENERGY>
50.8046

> <PUBCHEM_FEATURE_SELFOVERLAP>
66.398

> <PUBCHEM_SHAPE_FINGERPRINT>
10616163 171 18337956817300133636
10670039 82 18047484597628312940
10759866 29 18188497977413046044
10871710 139 17907865350450804487
11045515 52 17835219513783015799
11221954 11 18340212903322349319
11370993 70 18339358539838043581
12107183 9 18191293902248986362
12422481 6 18118152280198503313
12633257 1 18262231119348934248
12788726 201 18191294082431851795
12978246 48 18339361859774092520
13122387 1 17689995631275312736
13140716 1 18335423464920439591
13402501 40 18266177231931335036
13583140 156 18113907013489014579
14251764 38 18411697682024940229
14466204 15 18263915545831123346
14957384 54 18334569110089521938
15238133 3 18188214196096984550
17834072 32 18411700950231288689
19930381 70 17906735800212689217
20715895 44 18268708299430339817
21033648 29 17773574110524289738
21197605 99 18411986866990374959
21475661 188 18264773160156979839
22749437 52 18413107251594758968
23227448 37 18412544301810149415
23559900 14 18342174411045165154
238 59 17686027541171257397
3680242 22 18047753702260181097
392239 28 18337403630366266401
474 4 18196652895967910529
5081480 168 17199702608897751982
5309563 4 17399523810428574507
6328613 192 18335146376149765412
9709674 26 18412826876082093110

> <PUBCHEM_SHAPE_MULTIPOLES>
474.29
9.7
4.62
1.23
3.44
0.3
0.04
5.85
1.87
-2.6
0
-0.46
-0.59
0.58

> <PUBCHEM_SHAPE_SELFOVERLAP>
974.84

> <PUBCHEM_SHAPE_VOLUME>
274.6

> <PUBCHEM_COORDINATE_TYPE>
2
5
10

$$$$
