6443002
  -OEChem-03052615063D

 23 22  0     0  0  0  0  0  0999 V2000
    4.4054   -1.1854    0.2829 O   0  0  0  0  0  0  0  0  0  0  0  0
    4.4288    1.0187   -0.4097 O   0  0  0  0  0  0  0  0  0  0  0  0
   -4.9934   -1.8967   -0.4925 C   0  0  0  0  0  0  0  0  0  0  0  0
   -5.6583   -0.6569    0.0088 C   0  0  0  0  0  0  0  0  0  0  0  0
    2.3780   -0.1350    0.0754 C   0  0  0  0  0  0  0  0  0  0  0  0
    3.8445    0.0065   -0.0571 C   0  0  0  0  0  0  0  0  0  0  0  0
    5.8344   -1.2350    0.2126 C   0  0  0  0  0  0  0  0  0  0  0  0
   -4.9961    0.4626    0.3299 C   0  0  0  0  0  0  0  0  0  0  0  0
    1.5831    0.9053   -0.2031 C   0  0  0  0  0  0  0  0  0  0  0  0
    0.1699    0.8049   -0.0873 C   0  0  0  0  0  0  0  0  0  0  0  0
   -3.5830    0.5525    0.2139 C   0  0  0  0  0  0  0  0  0  0  0  0
   -1.0243    0.7252    0.0083 C   0  0  0  0  0  0  0  0  0  0  0  0
   -2.3890    0.6332    0.1180 C   0  0  0  0  0  0  0  0  0  0  0  0
   -5.2204   -2.7285    0.1824 H   0  0  0  0  0  0  0  0  0  0  0  0
   -5.3935   -2.1492   -1.4800 H   0  0  0  0  0  0  0  0  0  0  0  0
   -3.9067   -1.8347   -0.5840 H   0  0  0  0  0  0  0  0  0  0  0  0
   -6.7394   -0.6777    0.1141 H   0  0  0  0  0  0  0  0  0  0  0  0
    1.9779   -1.0909    0.3990 H   0  0  0  0  0  0  0  0  0  0  0  0
    6.2729   -0.5084    0.9033 H   0  0  0  0  0  0  0  0  0  0  0  0
    6.1698   -1.0462   -0.8117 H   0  0  0  0  0  0  0  0  0  0  0  0
    6.1547   -2.2377    0.5078 H   0  0  0  0  0  0  0  0  0  0  0  0
    1.9900    1.8580   -0.5263 H   0  0  0  0  0  0  0  0  0  0  0  0
   -5.5417    1.3290    0.6887 H   0  0  0  0  0  0  0  0  0  0  0  0
  1  6  1  0  0  0  0
  1  7  1  0  0  0  0
  2  6  2  0  0  0  0
  3  4  1  0  0  0  0
  3 14  1  0  0  0  0
  3 15  1  0  0  0  0
  3 16  1  0  0  0  0
  4  8  2  0  0  0  0
  4 17  1  0  0  0  0
  5  6  1  0  0  0  0
  5  9  2  0  0  0  0
  5 18  1  0  0  0  0
  7 19  1  0  0  0  0
  7 20  1  0  0  0  0
  7 21  1  0  0  0  0
  8 11  1  0  0  0  0
  8 23  1  0  0  0  0
  9 10  1  0  0  0  0
  9 22  1  0  0  0  0
 10 12  3  0  0  0  0
 11 13  3  0  0  0  0
 12 13  1  0  0  0  0
M  END
> <PUBCHEM_COMPOUND_CID>
6443002

> <PUBCHEM_CONFORMER_RMSD>
0.6

> <PUBCHEM_CONFORMER_DIVERSEORDER>
1
3
2

> <PUBCHEM_MMFF94_PARTIAL_CHARGES>
15
1 -0.43
10 -0.06
11 -0.06
17 0.15
18 0.15
2 -0.57
22 0.15
23 0.15
3 0.14
4 -0.29
5 -0.14
6 0.71
7 0.28
8 -0.09
9 -0.09

> <PUBCHEM_EFFECTIVE_ROTOR_COUNT>
2

> <PUBCHEM_PHARMACOPHORE_FEATURES>
2
1 2 acceptor
1 3 hydrophobe

> <PUBCHEM_HEAVY_ATOM_COUNT>
13

> <PUBCHEM_ATOM_DEF_STEREO_COUNT>
0

> <PUBCHEM_ATOM_UDEF_STEREO_COUNT>
0

> <PUBCHEM_BOND_DEF_STEREO_COUNT>
2

> <PUBCHEM_BOND_UDEF_STEREO_COUNT>
0

> <PUBCHEM_ISOTOPIC_ATOM_COUNT>
0

> <PUBCHEM_COMPONENT_COUNT>
1

> <PUBCHEM_CACTVS_TAUTO_COUNT>
1

> <PUBCHEM_CONFORMER_ID>
00624FFA00000001

> <PUBCHEM_MMFF94_ENERGY>
12.2205

> <PUBCHEM_FEATURE_SELFOVERLAP>
10.148

> <PUBCHEM_SHAPE_FINGERPRINT>
100836 57 9655574127773693123
10354089 29 12967127220453703746
10912923 1 18342466940735030489
117890 112 9151173151430828590
12555020 224 17967248724270254779
12670543 26 12757144650196981632
12714333 28 12179851601988006116
13167823 11 18410854378192133047
13690532 89 18408041805741414937
14123238 8 18412547621651102949
1420 363 17775289360767312582
14251718 22 18409167752856078485
14251732 16 18200590418779197872
14252887 29 16056892311682427076
15048467 5 9367345933718724723
15242439 84 15430042058153740849
15501527 16 8935002581731474583
17834072 33 18410294739315807061
17834072 8 15140965058138045983
17834076 25 8934998170299044553
200 152 18408042922860251457
20621476 30 18260832648080993611
20645477 70 18261112937846508114
20767249 213 9439406826834699003
212847 35 8574712386659066022
220451 1 18411429414056918261
23402539 116 18408038499086245045
23402655 69 8070024458850136360
23559900 14 18268421503479831385
23590187 198 18411139130329078355
26918003 58 17775004579309453169
351380 3 18408038502837886763
42 15 18272934912263632517
4214541 1 18411138005143014601
42788 4 18335140882053435969
441001 317 8358260350109075863
465052 167 18272374165886780398
49783359 22 18201717366847834679
5104073 3 17917435384370057489
559249 180 18411697674110401119
57483677 66 18408884035932637715
7495541 125 17917427665665258992

> <PUBCHEM_SHAPE_MULTIPOLES>
255.8
15.56
1.43
0.66
1.24
0.6
0
7.12
-0.45
-0.4
0.11
-0.08
0.02
-0.81

> <PUBCHEM_SHAPE_SELFOVERLAP>
495.604

> <PUBCHEM_SHAPE_VOLUME>
153.3

> <PUBCHEM_COORDINATE_TYPE>
2
5
10

$$$$
