6476773
  -OEChem-03052615053D

 55 55  0     1  0  0  0  0  0999 V2000
   -0.9637   -3.0092   -0.0385 O   0  0  0  0  0  0  0  0  0  0  0  0
    3.1696   -0.2341    1.0303 C   0  0  0  0  0  0  0  0  0  0  0  0
    2.4025    0.8047    0.1437 C   0  0  1  0  0  0  0  0  0  0  0  0
    2.7692   -1.6844    0.6501 C   0  0  0  0  0  0  0  0  0  0  0  0
    2.8986   -1.9803   -0.8466 C   0  0  0  0  0  0  0  0  0  0  0  0
    2.5322    0.4486   -1.3297 C   0  0  0  0  0  0  0  0  0  0  0  0
    0.9156    0.9634    0.4974 C   0  0  0  0  0  0  0  0  0  0  0  0
    2.1532   -0.9609   -1.7048 C   0  0  0  0  0  0  0  0  0  0  0  0
    4.6952   -0.0484    0.8390 C   0  0  0  0  0  0  0  0  0  0  0  0
    2.8771   -0.0215    2.5300 C   0  0  0  0  0  0  0  0  0  0  0  0
    0.2483    2.0389   -0.3623 C   0  0  0  0  0  0  0  0  0  0  0  0
    2.9830    1.3269   -2.2387 C   0  0  0  0  0  0  0  0  0  0  0  0
   -1.2217    2.1871   -0.0416 C   0  0  0  0  0  0  0  0  0  0  0  0
   -2.2126    1.5222   -0.6674 C   0  0  0  0  0  0  0  0  0  0  0  0
   -1.5408    3.1538    1.0690 C   0  0  0  0  0  0  0  0  0  0  0  0
   -3.6901    1.6093   -0.4025 C   0  0  0  0  0  0  0  0  0  0  0  0
   -4.1180    0.5936    0.6613 C   0  0  0  0  0  0  0  0  0  0  0  0
   -3.8504   -0.8284    0.2216 C   0  0  0  0  0  0  0  0  0  0  0  0
   -4.9522   -1.4708   -0.5791 C   0  0  0  0  0  0  0  0  0  0  0  0
   -2.7178   -1.5066    0.4907 C   0  0  0  0  0  0  0  0  0  0  0  0
   -2.3773   -2.9037    0.0780 C   0  0  0  0  0  0  0  0  0  0  0  0
    2.8714    1.7848    0.3174 H   0  0  0  0  0  0  0  0  0  0  0  0
    3.3811   -2.4040    1.2089 H   0  0  0  0  0  0  0  0  0  0  0  0
    1.7303   -1.8713    0.9513 H   0  0  0  0  0  0  0  0  0  0  0  0
    3.9571   -2.0010   -1.1318 H   0  0  0  0  0  0  0  0  0  0  0  0
    2.5054   -2.9831   -1.0519 H   0  0  0  0  0  0  0  0  0  0  0  0
    0.8144    1.2614    1.5470 H   0  0  0  0  0  0  0  0  0  0  0  0
    0.3802    0.0125    0.3917 H   0  0  0  0  0  0  0  0  0  0  0  0
    2.3657   -1.1625   -2.7615 H   0  0  0  0  0  0  0  0  0  0  0  0
    1.0722   -1.0896   -1.5788 H   0  0  0  0  0  0  0  0  0  0  0  0
    5.0102    0.9493    1.1662 H   0  0  0  0  0  0  0  0  0  0  0  0
    5.0059   -0.1616   -0.2039 H   0  0  0  0  0  0  0  0  0  0  0  0
    5.2577   -0.7813    1.4289 H   0  0  0  0  0  0  0  0  0  0  0  0
    3.5193   -0.6589    3.1492 H   0  0  0  0  0  0  0  0  0  0  0  0
    1.8430   -0.2742    2.7864 H   0  0  0  0  0  0  0  0  0  0  0  0
    3.0592    1.0179    2.8247 H   0  0  0  0  0  0  0  0  0  0  0  0
    0.3231    1.7902   -1.4268 H   0  0  0  0  0  0  0  0  0  0  0  0
    0.7546    3.0042   -0.2384 H   0  0  0  0  0  0  0  0  0  0  0  0
    3.0803    1.0566   -3.2847 H   0  0  0  0  0  0  0  0  0  0  0  0
    3.2633    2.3363   -1.9570 H   0  0  0  0  0  0  0  0  0  0  0  0
   -1.9280    0.8323   -1.4613 H   0  0  0  0  0  0  0  0  0  0  0  0
   -2.5773    3.1302    1.4108 H   0  0  0  0  0  0  0  0  0  0  0  0
   -1.3176    4.1764    0.7466 H   0  0  0  0  0  0  0  0  0  0  0  0
   -0.9238    2.9334    1.9469 H   0  0  0  0  0  0  0  0  0  0  0  0
   -4.2237    1.4249   -1.3434 H   0  0  0  0  0  0  0  0  0  0  0  0
   -3.9845    2.6188   -0.0971 H   0  0  0  0  0  0  0  0  0  0  0  0
   -3.5907    0.7934    1.6033 H   0  0  0  0  0  0  0  0  0  0  0  0
   -5.1839    0.7208    0.8856 H   0  0  0  0  0  0  0  0  0  0  0  0
   -4.8415   -2.5499   -0.7089 H   0  0  0  0  0  0  0  0  0  0  0  0
   -5.9146   -1.3232   -0.0764 H   0  0  0  0  0  0  0  0  0  0  0  0
   -5.0129   -1.0135   -1.5718 H   0  0  0  0  0  0  0  0  0  0  0  0
   -1.9677   -1.0039    1.1001 H   0  0  0  0  0  0  0  0  0  0  0  0
   -2.8073   -3.1907   -0.8845 H   0  0  0  0  0  0  0  0  0  0  0  0
   -2.7000   -3.6122    0.8459 H   0  0  0  0  0  0  0  0  0  0  0  0
   -0.6823   -2.4152   -0.7553 H   0  0  0  0  0  0  0  0  0  0  0  0
  1 21  1  0  0  0  0
  1 55  1  0  0  0  0
  2  3  1  0  0  0  0
  2  4  1  0  0  0  0
  2  9  1  0  0  0  0
  2 10  1  0  0  0  0
  3  6  1  0  0  0  0
  3  7  1  0  0  0  0
  3 22  1  0  0  0  0
  4  5  1  0  0  0  0
  4 23  1  0  0  0  0
  4 24  1  0  0  0  0
  5  8  1  0  0  0  0
  5 25  1  0  0  0  0
  5 26  1  0  0  0  0
  6  8  1  0  0  0  0
  6 12  2  0  0  0  0
  7 11  1  0  0  0  0
  7 27  1  0  0  0  0
  7 28  1  0  0  0  0
  8 29  1  0  0  0  0
  8 30  1  0  0  0  0
  9 31  1  0  0  0  0
  9 32  1  0  0  0  0
  9 33  1  0  0  0  0
 10 34  1  0  0  0  0
 10 35  1  0  0  0  0
 10 36  1  0  0  0  0
 11 13  1  0  0  0  0
 11 37  1  0  0  0  0
 11 38  1  0  0  0  0
 12 39  1  0  0  0  0
 12 40  1  0  0  0  0
 13 14  2  0  0  0  0
 13 15  1  0  0  0  0
 14 16  1  0  0  0  0
 14 41  1  0  0  0  0
 15 42  1  0  0  0  0
 15 43  1  0  0  0  0
 15 44  1  0  0  0  0
 16 17  1  0  0  0  0
 16 45  1  0  0  0  0
 16 46  1  0  0  0  0
 17 18  1  0  0  0  0
 17 47  1  0  0  0  0
 17 48  1  0  0  0  0
 18 19  1  0  0  0  0
 18 20  2  0  0  0  0
 19 49  1  0  0  0  0
 19 50  1  0  0  0  0
 19 51  1  0  0  0  0
 20 21  1  0  0  0  0
 20 52  1  0  0  0  0
 21 53  1  0  0  0  0
 21 54  1  0  0  0  0
M  END
> <PUBCHEM_COMPOUND_CID>
6476773

> <PUBCHEM_CONFORMER_RMSD>
0.8

> <PUBCHEM_CONFORMER_DIVERSEORDER>
1
94
142
160
10
217
313
59
261
278
317
198
145
104
291
302
270
165
315
105
188
289
19
311
138
27
56
258
53
68
334
126
301
203
279
148
234
259
230
209
130
17
196
186
103
176
192
283
252
139
297
177
239
263
200
229
155
249
77
319
61
93
131
316
187
223
44
292
7
86
46
75
29
64
197
32
233
125
305
265
45
195
48
135
246
112
136
269
225
110
38
167
137
115
158
97
5
222
15
129
117
250
243
318
169
143
277
271
35
218
161
272
96
185
114
156
92
304
164
282
280
80
58
24
173
190
95
87
171
309
207
219
63
124
34
183
310
134
333
62
235
293
81
60
220
325
42
253
275
31
118
238
174
73
306
226
133
326
247
119
276
106
191
4
182
82
79
107
23
285
76
52
184
65
241
67
128
69
201
78
237
296
120
149
102
284
286
26
36
11
321
215
101
16
221
50
39
328
308
12
251
55
194
144
228
162
324
248
122
303
88
244
108
30
37
204
154
51
3
91
33
231
199
66
83
8
216
181
127
290
18
262
300
227
264
43
312
28
159
47
72
179
327
147
100
54
41
21
193
163
153
288
323
74
240
71
298
84
146
49
152
109
85
2
330
70
214
242
266
245
322
22
172
320
25
314
281
206
267
113
295
331
299
57
180
166
213
257
6
205
210
89
307
123
254
294
141
255
287
99
111
189
168
236
208
40
178
20
256
211
212
140
329
132
121
274
332
9
260
175
150
170
90
14
273
13
151
98
224
116
232
157
202
268

> <PUBCHEM_MMFF94_PARTIAL_CHARGES>
20
1 -0.68
11 0.14
12 -0.3
13 -0.28
14 -0.29
15 0.14
16 0.14
17 0.14
18 -0.28
19 0.14
20 -0.29
21 0.42
3 0.14
39 0.15
40 0.15
41 0.15
52 0.15
55 0.4
6 -0.28
8 0.14

> <PUBCHEM_EFFECTIVE_ROTOR_COUNT>
8

> <PUBCHEM_PHARMACOPHORE_FEATURES>
7
1 1 acceptor
1 1 donor
1 15 hydrophobe
1 19 hydrophobe
3 2 9 10 hydrophobe
4 14 16 17 18 hydrophobe
6 2 3 4 5 6 8 rings

> <PUBCHEM_HEAVY_ATOM_COUNT>
21

> <PUBCHEM_ATOM_DEF_STEREO_COUNT>
1

> <PUBCHEM_ATOM_UDEF_STEREO_COUNT>
0

> <PUBCHEM_BOND_DEF_STEREO_COUNT>
2

> <PUBCHEM_BOND_UDEF_STEREO_COUNT>
0

> <PUBCHEM_ISOTOPIC_ATOM_COUNT>
0

> <PUBCHEM_COMPONENT_COUNT>
1

> <PUBCHEM_CACTVS_TAUTO_COUNT>
1

> <PUBCHEM_CONFORMER_ID>
0062D3E500000001

> <PUBCHEM_MMFF94_ENERGY>
37.9473

> <PUBCHEM_FEATURE_SELFOVERLAP>
35.529

> <PUBCHEM_SHAPE_FINGERPRINT>
10366900 7 17703214153237737768
10759866 29 18041290940742703894
12506688 2 18340487862960376393
12553582 1 18339654450505375485
12633257 1 18340774844427726971
12788726 201 18339092552887981217
13402501 40 18272087175766197675
13583140 156 15195567914197178179
13726171 33 18120122647347535205
13911882 115 18131352995057654358
14081887 123 18271799116525196001
14178342 30 18051974723188927312
16752209 62 18334289847432100315
17093844 170 18341051804813664654
19026451 147 17262697284838917551
20403669 9 18411418449401050503
23557571 272 18341890796752559826
23559900 14 18270404867251668492
238 59 15575296336307968532
3004659 81 18113333111521500981
3052486 1 18261111825381627562
338550 245 18191033291932819841
339767 52 18187353355057678683
5895379 119 18336836316309411852
602551 16 18413106147809191712
9709674 26 18129094528832402412

> <PUBCHEM_SHAPE_MULTIPOLES>
426.3
9.08
3.29
1.68
3.98
0.47
0.01
2.5
0.51
2.59
0.01
-2.24
-0.3
-0.42

> <PUBCHEM_SHAPE_SELFOVERLAP>
834.789

> <PUBCHEM_SHAPE_VOLUME>
256.3

> <PUBCHEM_COORDINATE_TYPE>
2
5
10

$$$$
