688802
  -OEChem-03052615073D

 39 41  0     0  0  0  0  0  0999 V2000
   -0.3958    0.6115   -0.2895 O   0  0  0  0  0  0  0  0  0  0  0  0
    1.9381    0.2362    2.2469 O   0  0  0  0  0  0  0  0  0  0  0  0
   -5.9033    0.2241   -0.2399 O   0  0  0  0  0  0  0  0  0  0  0  0
    5.9284    0.4944   -0.3383 O   0  0  0  0  0  0  0  0  0  0  0  0
   -2.0374   -3.0449    0.4409 O   0  0  0  0  0  0  0  0  0  0  0  0
    0.3912   -0.5051   -0.0519 C   0  0  0  0  0  0  0  0  0  0  0  0
    1.8427   -0.2390   -0.1072 C   0  0  0  0  0  0  0  0  0  0  0  0
   -2.3866   -0.7541   -0.0215 C   0  0  0  0  0  0  0  0  0  0  0  0
   -1.7597    0.4666   -0.2665 C   0  0  0  0  0  0  0  0  0  0  0  0
   -0.0932   -1.7338    0.1889 C   0  0  0  0  0  0  0  0  0  0  0  0
   -1.5549   -1.9423    0.2227 C   0  0  0  0  0  0  0  0  0  0  0  0
    2.5593    0.1201    1.0386 C   0  0  0  0  0  0  0  0  0  0  0  0
   -3.7804   -0.8429   -0.0108 C   0  0  0  0  0  0  0  0  0  0  0  0
    2.5099   -0.3499   -1.3308 C   0  0  0  0  0  0  0  0  0  0  0  0
   -2.5255    1.6086   -0.5030 C   0  0  0  0  0  0  0  0  0  0  0  0
   -4.5438    0.3009   -0.2473 C   0  0  0  0  0  0  0  0  0  0  0  0
    3.9302    0.3662    0.9611 C   0  0  0  0  0  0  0  0  0  0  0  0
   -3.9180    1.5239   -0.4930 C   0  0  0  0  0  0  0  0  0  0  0  0
    4.5908    0.2541   -0.2624 C   0  0  0  0  0  0  0  0  0  0  0  0
    3.8805   -0.1039   -1.4083 C   0  0  0  0  0  0  0  0  0  0  0  0
    1.4098    1.5172    2.5821 C   0  0  0  0  0  0  0  0  0  0  0  0
   -6.6226    1.4303   -0.4902 C   0  0  0  0  0  0  0  0  0  0  0  0
    6.5401    0.3618   -1.6205 C   0  0  0  0  0  0  0  0  0  0  0  0
    0.5464   -2.5916    0.3640 H   0  0  0  0  0  0  0  0  0  0  0  0
   -4.2798   -1.7894    0.1787 H   0  0  0  0  0  0  0  0  0  0  0  0
    1.9705   -0.6273   -2.2338 H   0  0  0  0  0  0  0  0  0  0  0  0
   -2.0452    2.5643   -0.6950 H   0  0  0  0  0  0  0  0  0  0  0  0
    4.4855    0.6444    1.8534 H   0  0  0  0  0  0  0  0  0  0  0  0
   -4.4527    2.4482   -0.6839 H   0  0  0  0  0  0  0  0  0  0  0  0
    4.3305   -0.2088   -2.3896 H   0  0  0  0  0  0  0  0  0  0  0  0
    0.7557    1.9015    1.7943 H   0  0  0  0  0  0  0  0  0  0  0  0
    2.2260    2.2236    2.7634 H   0  0  0  0  0  0  0  0  0  0  0  0
    0.8260    1.4164    3.5011 H   0  0  0  0  0  0  0  0  0  0  0  0
   -6.4355    2.1794    0.2867 H   0  0  0  0  0  0  0  0  0  0  0  0
   -7.6889    1.1854   -0.4469 H   0  0  0  0  0  0  0  0  0  0  0  0
   -6.4243    1.8161   -1.4960 H   0  0  0  0  0  0  0  0  0  0  0  0
    6.1395    1.0893   -2.3347 H   0  0  0  0  0  0  0  0  0  0  0  0
    6.4742   -0.6659   -1.9935 H   0  0  0  0  0  0  0  0  0  0  0  0
    7.6039    0.5889   -1.4961 H   0  0  0  0  0  0  0  0  0  0  0  0
  1  6  1  0  0  0  0
  1  9  1  0  0  0  0
  2 12  1  0  0  0  0
  2 21  1  0  0  0  0
  3 16  1  0  0  0  0
  3 22  1  0  0  0  0
  4 19  1  0  0  0  0
  4 23  1  0  0  0  0
  5 11  2  0  0  0  0
  6  7  1  0  0  0  0
  6 10  2  0  0  0  0
  7 12  2  0  0  0  0
  7 14  1  0  0  0  0
  8  9  2  0  0  0  0
  8 11  1  0  0  0  0
  8 13  1  0  0  0  0
  9 15  1  0  0  0  0
 10 11  1  0  0  0  0
 10 24  1  0  0  0  0
 12 17  1  0  0  0  0
 13 16  2  0  0  0  0
 13 25  1  0  0  0  0
 14 20  2  0  0  0  0
 14 26  1  0  0  0  0
 15 18  2  0  0  0  0
 15 27  1  0  0  0  0
 16 18  1  0  0  0  0
 17 19  2  0  0  0  0
 17 28  1  0  0  0  0
 18 29  1  0  0  0  0
 19 20  1  0  0  0  0
 20 30  1  0  0  0  0
 21 31  1  0  0  0  0
 21 32  1  0  0  0  0
 21 33  1  0  0  0  0
 22 34  1  0  0  0  0
 22 35  1  0  0  0  0
 22 36  1  0  0  0  0
 23 37  1  0  0  0  0
 23 38  1  0  0  0  0
 23 39  1  0  0  0  0
M  END
> <PUBCHEM_COMPOUND_CID>
688802

> <PUBCHEM_CONFORMER_RMSD>
0.6

> <PUBCHEM_CONFORMER_DIVERSEORDER>
2
16
11
4
12
15
3
19
10
5
14
6
9
17
13
8
20
18
1
7

> <PUBCHEM_MMFF94_PARTIAL_CHARGES>
30
1 -0.16
10 -0.14
11 0.47
12 0.08
13 -0.15
14 -0.15
15 -0.15
16 0.08
17 -0.15
18 -0.15
19 0.08
2 -0.36
20 -0.15
21 0.28
22 0.28
23 0.28
24 0.15
25 0.15
26 0.15
27 0.15
28 0.15
29 0.15
3 -0.36
30 0.15
4 -0.36
5 -0.57
6 0.05
7 0.03
8 0.09
9 0.08

> <PUBCHEM_EFFECTIVE_ROTOR_COUNT>
4

> <PUBCHEM_PHARMACOPHORE_FEATURES>
8
1 1 acceptor
1 2 acceptor
1 3 acceptor
1 4 acceptor
1 5 acceptor
6 1 6 8 9 10 11 rings
6 7 12 14 17 19 20 rings
6 8 9 13 15 16 18 rings

> <PUBCHEM_HEAVY_ATOM_COUNT>
23

> <PUBCHEM_ATOM_DEF_STEREO_COUNT>
0

> <PUBCHEM_ATOM_UDEF_STEREO_COUNT>
0

> <PUBCHEM_BOND_DEF_STEREO_COUNT>
0

> <PUBCHEM_BOND_UDEF_STEREO_COUNT>
0

> <PUBCHEM_ISOTOPIC_ATOM_COUNT>
0

> <PUBCHEM_COMPONENT_COUNT>
1

> <PUBCHEM_CACTVS_TAUTO_COUNT>
1

> <PUBCHEM_CONFORMER_ID>
000A82A200000002

> <PUBCHEM_MMFF94_ENERGY>
98.1511

> <PUBCHEM_FEATURE_SELFOVERLAP>
40.628

> <PUBCHEM_SHAPE_FINGERPRINT>
10165383 225 18410578357797534017
10366900 7 18060136535403392963
10411042 1 17758123975068733411
10670039 82 18336549296256148556
11796584 16 18411422822026657990
12011746 2 18131633382790466993
12107183 9 15434502596893039597
12236239 1 17313103068542758502
12390115 104 18269844116728112961
12403259 415 18201433727149506923
12596602 18 16660364770888803217
12730499 353 17989769994871447855
12788726 201 18059295348821009392
12892183 10 14562802197864042135
13134695 92 16200151036667771488
13402501 40 18131347522631249624
13533116 47 18271523074920011118
13631057 29 16082508850088501187
13911987 19 17202780314280723724
14341114 328 16660642946982405929
14386348 63 17917716824723408374
17357779 13 17132120130554217992
18186145 218 17774993588303448523
18681886 176 18260830440235240037
200 152 15195571195177853594
20645477 56 18407762542693934967
20645477 70 17060066895908108854
20681677 155 18113900498097147826
21033648 29 18059282270740122610
21285901 2 17560808671684119524
21792961 116 18059028232953618878
22122407 14 16009044847440112469
221357 26 17346596344282287761
22224240 67 13984668078804463472
22289505 5 17418089893123656152
23175994 123 17489317416491858944
23402539 116 18410007762501737023
23559900 14 18343018925636652596
3004659 81 18337111164806160726
3472631 163 18186809105655699668
34934 24 17313104154794912116
350125 39 18046340838714449451
3545911 37 18409171004351848830
474 4 16298676078920217004
542803 24 17530963592082824148
5486654 2 18409728448647787477
59682541 52 16773512170918519973
59755656 520 18334851714938368447
7808743 9 18261109673238729629
9971528 1 15769768070620261904

> <PUBCHEM_SHAPE_MULTIPOLES>
443.98
13.59
1.78
1.52
0.28
0.93
0.77
-4.92
-5.75
1.98
0.46
-2.09
-0.58
1.06

> <PUBCHEM_SHAPE_SELFOVERLAP>
971.084

> <PUBCHEM_SHAPE_VOLUME>
241.3

> <PUBCHEM_COORDINATE_TYPE>
2
5
10

$$$$
