101416447
  -OEChem-02172602423D

 34 33  0     1  0  0  0  0  0999 V2000
   -5.7464   -2.0811   -0.1641 O   0  0  0  0  0  0  0  0  0  0  0  0
   -6.2187    0.0799   -1.1052 C   0  0  0  0  0  0  0  0  0  0  0  0
    5.4726    1.1757   -0.4217 C   0  0  0  0  0  0  0  0  0  0  0  0
    6.3845   -0.0036   -0.7758 C   0  0  0  0  0  0  0  0  0  0  0  0
   -5.6364   -0.6818    0.0890 C   0  0  2  0  0  0  0  0  0  0  0  0
   -6.2095    1.5903   -0.9178 C   0  0  0  0  0  0  0  0  0  0  0  0
    4.0160    0.8577   -0.6150 C   0  0  0  0  0  0  0  0  0  0  0  0
    6.1810   -1.1841    0.1302 C   0  0  0  0  0  0  0  0  0  0  0  0
    3.0962    0.9721    0.3544 C   0  0  0  0  0  0  0  0  0  0  0  0
   -4.2209   -0.3589    0.3144 C   0  0  0  0  0  0  0  0  0  0  0  0
    1.6972    0.6648    0.1573 C   0  0  0  0  0  0  0  0  0  0  0  0
    5.7981   -2.3940   -0.2925 C   0  0  0  0  0  0  0  0  0  0  0  0
    0.7813    0.7806    1.1290 C   0  0  0  0  0  0  0  0  0  0  0  0
   -3.0648   -0.0937    0.5011 C   0  0  0  0  0  0  0  0  0  0  0  0
   -0.5867    0.4692    0.9017 C   0  0  0  0  0  0  0  0  0  0  0  0
   -1.7433    0.2069    0.7148 C   0  0  0  0  0  0  0  0  0  0  0  0
   -5.6697   -0.1768   -2.0205 H   0  0  0  0  0  0  0  0  0  0  0  0
   -7.2492   -0.2570   -1.2744 H   0  0  0  0  0  0  0  0  0  0  0  0
    5.6701    1.5013    0.6075 H   0  0  0  0  0  0  0  0  0  0  0  0
    5.7254    2.0222   -1.0716 H   0  0  0  0  0  0  0  0  0  0  0  0
    7.4291    0.3189   -0.6872 H   0  0  0  0  0  0  0  0  0  0  0  0
    6.2339   -0.2868   -1.8254 H   0  0  0  0  0  0  0  0  0  0  0  0
   -6.2246   -0.4604    0.9868 H   0  0  0  0  0  0  0  0  0  0  0  0
   -6.7461    1.8753   -0.0073 H   0  0  0  0  0  0  0  0  0  0  0  0
   -5.1907    1.9846   -0.8573 H   0  0  0  0  0  0  0  0  0  0  0  0
   -6.7028    2.0757   -1.7661 H   0  0  0  0  0  0  0  0  0  0  0  0
    3.7181    0.5326   -1.6096 H   0  0  0  0  0  0  0  0  0  0  0  0
    6.3699   -1.0379    1.1906 H   0  0  0  0  0  0  0  0  0  0  0  0
    3.3992    1.3055    1.3438 H   0  0  0  0  0  0  0  0  0  0  0  0
   -5.4597   -2.5498    0.6386 H   0  0  0  0  0  0  0  0  0  0  0  0
    1.3988    0.3260   -0.8326 H   0  0  0  0  0  0  0  0  0  0  0  0
    5.6737   -3.2082    0.4131 H   0  0  0  0  0  0  0  0  0  0  0  0
    5.6017   -2.5933   -1.3401 H   0  0  0  0  0  0  0  0  0  0  0  0
    1.0612    1.1170    2.1227 H   0  0  0  0  0  0  0  0  0  0  0  0
  1  5  1  0  0  0  0
  1 30  1  0  0  0  0
  2  5  1  0  0  0  0
  2  6  1  0  0  0  0
  2 17  1  0  0  0  0
  2 18  1  0  0  0  0
  3  4  1  0  0  0  0
  3  7  1  0  0  0  0
  3 19  1  0  0  0  0
  3 20  1  0  0  0  0
  4  8  1  0  0  0  0
  4 21  1  0  0  0  0
  4 22  1  0  0  0  0
  5 10  1  0  0  0  0
  5 23  1  0  0  0  0
  6 24  1  0  0  0  0
  6 25  1  0  0  0  0
  6 26  1  0  0  0  0
  7  9  2  0  0  0  0
  7 27  1  0  0  0  0
  8 12  2  0  0  0  0
  8 28  1  0  0  0  0
  9 11  1  0  0  0  0
  9 29  1  0  0  0  0
 10 14  3  0  0  0  0
 11 13  2  0  0  0  0
 11 31  1  0  0  0  0
 12 32  1  0  0  0  0
 12 33  1  0  0  0  0
 13 15  1  0  0  0  0
 13 34  1  0  0  0  0
 14 16  1  0  0  0  0
 15 16  3  0  0  0  0
M  END
> <PUBCHEM_COMPOUND_CID>
101416447

> <PUBCHEM_CONFORMER_RMSD>
0.6

> <PUBCHEM_CONFORMER_DIVERSEORDER>
2
31
89
92
54
24
14
38
107
5
32
117
47
29
76
67
52
23
11
48
58
17
25
49
116
18
73
9
71
19
36
75
100
20
96
78
108
7
112
37
33
34
55
122
97
15
83
26
63
10
46
21
105
8
3
103
28
111
6
77
16
62
94
13
119
126
27
74
72
43
65
98
42
4
40
114
121
70
102
39
41
12
45
106
82
53
88
86
57
91
51
87
44
30
50
110
79
84
59
90
1
64
101
85
61
56
66
104
81
93
22
113
60
35
68
109
69
123
125
99
95
124
80
120
118
115

> <PUBCHEM_MMFF94_PARTIAL_CHARGES>
20
1 -0.68
10 -0.2
11 -0.15
12 -0.3
13 -0.09
15 -0.06
27 0.15
28 0.15
29 0.15
3 0.14
30 0.4
31 0.15
32 0.15
33 0.15
34 0.15
4 0.14
5 0.48
7 -0.29
8 -0.29
9 -0.15

> <PUBCHEM_EFFECTIVE_ROTOR_COUNT>
5

> <PUBCHEM_PHARMACOPHORE_FEATURES>
5
1 1 acceptor
1 1 donor
1 12 hydrophobe
1 6 hydrophobe
4 3 4 7 8 hydrophobe

> <PUBCHEM_HEAVY_ATOM_COUNT>
16

> <PUBCHEM_ATOM_DEF_STEREO_COUNT>
0

> <PUBCHEM_ATOM_UDEF_STEREO_COUNT>
1

> <PUBCHEM_BOND_DEF_STEREO_COUNT>
2

> <PUBCHEM_BOND_UDEF_STEREO_COUNT>
0

> <PUBCHEM_ISOTOPIC_ATOM_COUNT>
0

> <PUBCHEM_COMPONENT_COUNT>
1

> <PUBCHEM_CACTVS_TAUTO_COUNT>
1

> <PUBCHEM_CONFORMER_ID>
060B7DFF00000002

> <PUBCHEM_MMFF94_ENERGY>
4.6552

> <PUBCHEM_FEATURE_SELFOVERLAP>
25.383

> <PUBCHEM_SHAPE_FINGERPRINT>
10 15 8502652619346853329
100836 57 12973603348246925224
10354089 29 9655576306034190802
106641 1 10519696804665127949
10803635 8 18343863338256830823
11858739 19 18410013221948332818
12091667 2 17894632582693892561
12670543 26 18260266339040451801
13177829 20 10231747899221565797
13533116 47 18343867706549755306
13668630 136 18201727241151793254
13862211 1 17060621109423133213
13964095 4 18334857208317239901
14251740 57 16987451811163337590
14251752 14 18410852144708899485
14251764 18 13470401193252215048
15183329 4 18187080620265653209
15716309 27 10303813181504381885
17093844 174 13758361055779757195
20281389 69 12829482675249821628
20621476 78 18340208497329501362
20621476 8 17603863369463330821
20645477 70 18334301938429806722
21130983 4 11674876693001317544
21315764 119 18113902649733214734
21637258 2 17418371393717014280
22079108 93 11959727158152325388
22224240 67 14045738219255695228
23081809 10 18060150837929812920
23198884 109 17967250910413551529
23559900 14 18200587124702949017
29717793 49 18186523202910629996
3004659 81 18334294258548311746
3014965 18 18335700508002844018
5104073 3 13253977636709317022
531348 171 18341610396192815327
59682541 35 13829839228506648582
59682541 52 17968097487122500290
59755656 215 17676486120925374002
7062679 6 13334730228354408231

> <PUBCHEM_SHAPE_MULTIPOLES>
323.4
21.92
1.74
1.02
3.12
0.95
-0.01
5.7
-7.82
-1.06
-0.25
0.47
-0.2
0.49

> <PUBCHEM_SHAPE_SELFOVERLAP>
616.263

> <PUBCHEM_SHAPE_VOLUME>
196

> <PUBCHEM_COORDINATE_TYPE>
2
5
10

$$$$
