5362189
  -OEChem-02172602383D

 52 57  0     0  0  0  0  0  0999 V2000
    4.4134    6.0635    0.0059 Cl  0  0  0  0  0  0  0  0  0  0  0  0
    5.4530   -0.6385   -0.3671 N   0  0  0  0  0  0  0  0  0  0  0  0
    0.8823   -1.1773    0.7813 N   0  0  0  0  0  0  0  0  0  0  0  0
   -5.5227   -1.0631   -0.1377 N   0  0  0  0  0  0  0  0  0  0  0  0
   -5.1763    1.1098    0.1754 N   0  0  0  0  0  0  0  0  0  0  0  0
    3.1727   -0.7627    0.1231 C   0  0  0  0  0  0  0  0  0  0  0  0
    3.6546   -2.1272   -0.0519 C   0  0  0  0  0  0  0  0  0  0  0  0
    4.3824    0.0836   -0.1244 C   0  0  0  0  0  0  0  0  0  0  0  0
    5.0232   -1.9866   -0.3335 C   0  0  0  0  0  0  0  0  0  0  0  0
    4.3904    1.5467   -0.0923 C   0  0  0  0  0  0  0  0  0  0  0  0
    1.9463   -0.3862    0.4906 C   0  0  0  0  0  0  0  0  0  0  0  0
   -3.2068   -0.3569    0.2851 C   0  0  0  0  0  0  0  0  0  0  0  0
   -4.6113   -0.0756    0.1150 C   0  0  0  0  0  0  0  0  0  0  0  0
    3.0507   -3.3695    0.0171 C   0  0  0  0  0  0  0  0  0  0  0  0
   -0.4849   -0.9029    0.6153 C   0  0  0  0  0  0  0  0  0  0  0  0
   -6.7571   -0.4762   -0.2478 C   0  0  0  0  0  0  0  0  0  0  0  0
    5.8161   -3.1015   -0.5533 C   0  0  0  0  0  0  0  0  0  0  0  0
   -6.5144    0.8800   -0.0485 C   0  0  0  0  0  0  0  0  0  0  0  0
   -2.2555    0.5966   -0.0769 C   0  0  0  0  0  0  0  0  0  0  0  0
   -2.8003   -1.5829    0.8119 C   0  0  0  0  0  0  0  0  0  0  0  0
   -0.8974    0.3242    0.0879 C   0  0  0  0  0  0  0  0  0  0  0  0
   -1.4422   -1.8552    0.9767 C   0  0  0  0  0  0  0  0  0  0  0  0
    3.8477   -4.4950   -0.2044 C   0  0  0  0  0  0  0  0  0  0  0  0
    5.2180   -4.3627   -0.4866 C   0  0  0  0  0  0  0  0  0  0  0  0
    4.6546    2.2244    1.1023 C   0  0  0  0  0  0  0  0  0  0  0  0
    4.1331    2.2785   -1.2561 C   0  0  0  0  0  0  0  0  0  0  0  0
   -8.0265   -0.9991   -0.4971 C   0  0  0  0  0  0  0  0  0  0  0  0
   -7.5901    1.7827   -0.0974 C   0  0  0  0  0  0  0  0  0  0  0  0
    4.6615    3.6190    1.1327 C   0  0  0  0  0  0  0  0  0  0  0  0
    4.1402    3.6730   -1.2256 C   0  0  0  0  0  0  0  0  0  0  0  0
   -9.0855   -0.0865   -0.5422 C   0  0  0  0  0  0  0  0  0  0  0  0
   -8.8734    1.2802   -0.3462 C   0  0  0  0  0  0  0  0  0  0  0  0
    4.4044    4.3433   -0.0313 C   0  0  0  0  0  0  0  0  0  0  0  0
    1.7348    0.6744    0.5709 H   0  0  0  0  0  0  0  0  0  0  0  0
    1.9972   -3.5214    0.2024 H   0  0  0  0  0  0  0  0  0  0  0  0
    1.0856   -2.1147    1.0989 H   0  0  0  0  0  0  0  0  0  0  0  0
    6.8738   -3.0048   -0.7734 H   0  0  0  0  0  0  0  0  0  0  0  0
   -5.3329   -2.0511   -0.2422 H   0  0  0  0  0  0  0  0  0  0  0  0
   -2.5512    1.5562   -0.4945 H   0  0  0  0  0  0  0  0  0  0  0  0
   -3.5157   -2.3425    1.1165 H   0  0  0  0  0  0  0  0  0  0  0  0
   -0.1948    1.0924   -0.2199 H   0  0  0  0  0  0  0  0  0  0  0  0
   -1.1399   -2.8138    1.3911 H   0  0  0  0  0  0  0  0  0  0  0  0
    3.4035   -5.4863   -0.1646 H   0  0  0  0  0  0  0  0  0  0  0  0
    5.8180   -5.2527   -0.6570 H   0  0  0  0  0  0  0  0  0  0  0  0
    4.8562    1.6708    2.0160 H   0  0  0  0  0  0  0  0  0  0  0  0
    3.9255    1.7673   -2.1929 H   0  0  0  0  0  0  0  0  0  0  0  0
   -8.1885   -2.0602   -0.6489 H   0  0  0  0  0  0  0  0  0  0  0  0
   -7.4356    2.8463    0.0535 H   0  0  0  0  0  0  0  0  0  0  0  0
  -10.0927   -0.4486   -0.7336 H   0  0  0  0  0  0  0  0  0  0  0  0
    4.8688    4.1278    2.0706 H   0  0  0  0  0  0  0  0  0  0  0  0
    3.9380    4.2243   -2.1404 H   0  0  0  0  0  0  0  0  0  0  0  0
   -9.7166    1.9650   -0.3873 H   0  0  0  0  0  0  0  0  0  0  0  0
  1 33  1  0  0  0  0
  2  8  2  0  0  0  0
  2  9  1  0  0  0  0
  3 11  1  0  0  0  0
  3 15  1  0  0  0  0
  3 36  1  0  0  0  0
  4 13  1  0  0  0  0
  4 16  1  0  0  0  0
  4 38  1  0  0  0  0
  5 13  2  0  0  0  0
  5 18  1  0  0  0  0
  6  7  1  0  0  0  0
  6  8  1  0  0  0  0
  6 11  2  0  0  0  0
  7  9  1  0  0  0  0
  7 14  2  0  0  0  0
  8 10  1  0  0  0  0
  9 17  2  0  0  0  0
 10 25  2  0  0  0  0
 10 26  1  0  0  0  0
 11 34  1  0  0  0  0
 12 13  1  0  0  0  0
 12 19  2  0  0  0  0
 12 20  1  0  0  0  0
 14 23  1  0  0  0  0
 14 35  1  0  0  0  0
 15 21  2  0  0  0  0
 15 22  1  0  0  0  0
 16 18  1  0  0  0  0
 16 27  2  0  0  0  0
 17 24  1  0  0  0  0
 17 37  1  0  0  0  0
 18 28  2  0  0  0  0
 19 21  1  0  0  0  0
 19 39  1  0  0  0  0
 20 22  2  0  0  0  0
 20 40  1  0  0  0  0
 21 41  1  0  0  0  0
 22 42  1  0  0  0  0
 23 24  2  0  0  0  0
 23 43  1  0  0  0  0
 24 44  1  0  0  0  0
 25 29  1  0  0  0  0
 25 45  1  0  0  0  0
 26 30  2  0  0  0  0
 26 46  1  0  0  0  0
 27 31  1  0  0  0  0
 27 47  1  0  0  0  0
 28 32  1  0  0  0  0
 28 48  1  0  0  0  0
 29 33  2  0  0  0  0
 29 50  1  0  0  0  0
 30 33  1  0  0  0  0
 30 51  1  0  0  0  0
 31 32  2  0  0  0  0
 31 49  1  0  0  0  0
 32 52  1  0  0  0  0
M  END
> <PUBCHEM_COMPOUND_CID>
5362189

> <PUBCHEM_CONFORMER_RMSD>
0.8

> <PUBCHEM_CONFORMER_DIVERSEORDER>
1
4
5
2
3

> <PUBCHEM_MMFF94_PARTIAL_CHARGES>
52
1 -0.18
10 0.09
11 -0.05
12 0.05
13 0.13
14 -0.15
15 0.1
16 -0.15
17 -0.15
18 0.23
19 -0.15
2 -0.63
20 -0.15
21 -0.15
22 -0.15
23 -0.15
24 -0.15
25 -0.15
26 -0.15
27 -0.15
28 -0.15
29 -0.15
3 -0.6
30 -0.15
31 -0.15
32 -0.15
33 0.18
34 0.15
35 0.15
36 0.4
37 0.15
38 0.27
39 0.15
4 0.03
40 0.15
41 0.15
42 0.15
43 0.15
44 0.15
45 0.15
46 0.15
47 0.15
48 0.15
49 0.15
5 -0.57
50 0.15
51 0.15
52 0.15
6 -0.01
7 0.03
8 0.35
9 0.18

> <PUBCHEM_EFFECTIVE_ROTOR_COUNT>
4

> <PUBCHEM_PHARMACOPHORE_FEATURES>
11
1 2 acceptor
1 3 cation
1 3 donor
1 4 donor
3 4 5 13 cation
5 2 6 7 8 9 rings
5 4 5 13 16 18 rings
6 10 25 26 29 30 33 rings
6 12 15 19 20 21 22 rings
6 16 18 27 28 31 32 rings
6 7 9 14 17 23 24 rings

> <PUBCHEM_HEAVY_ATOM_COUNT>
33

> <PUBCHEM_ATOM_DEF_STEREO_COUNT>
0

> <PUBCHEM_ATOM_UDEF_STEREO_COUNT>
0

> <PUBCHEM_BOND_DEF_STEREO_COUNT>
1

> <PUBCHEM_BOND_UDEF_STEREO_COUNT>
0

> <PUBCHEM_ISOTOPIC_ATOM_COUNT>
0

> <PUBCHEM_COMPONENT_COUNT>
1

> <PUBCHEM_CACTVS_TAUTO_COUNT>
5

> <PUBCHEM_CONFORMER_ID>
0051D20D00000001

> <PUBCHEM_MMFF94_ENERGY>
118.2171

> <PUBCHEM_FEATURE_SELFOVERLAP>
56.027

> <PUBCHEM_SHAPE_FINGERPRINT>
10050765 1 18337672031189033059
10411042 1 18123188997074203806
10673678 19 18341054124106404673
10835480 77 18336547204864953427
11007060 377 18187087287268187675
11135609 127 18341325703769050952
11386260 185 18412547578907106780
11607047 191 17201053029164616112
12440610 7 17969229021473106202
12539765 74 18202291295254701271
12664476 115 17967811634972722292
13008946 170 18201710791242706256
13533116 47 18411140216660379324
13540713 4 17969241073014026826
14068700 686 17976831101023871186
14400156 350 18337669824197958148
15082195 135 18412549812094746498
15131766 46 18056468680820732533
15183329 4 18340487747408015019
15276724 80 18411138009649271133
15400415 2 17907019830479384272
15406563 190 17756993676592718810
15439362 3 18195250138934200132
15484559 13 18340779187220685598
15554971 5 17704068470532236305
15840311 113 18334576833363847429
15890870 6 18268430325543669408
16988056 13 18409453558051250332
17899979 129 18337677537495180212
18354007 30 17405980143309587728
19053607 189 18119527897730658264
19311894 1 17689718554624688144
19427546 62 18337109085546130418
20157964 124 18411138051938872234
21049683 118 17240758527602921874
21133410 230 18268135480923740202
23522609 53 17774463645617147201
23523788 1 17689965996830303210
23559900 14 18409168805661305458
249057 25 17846225410575556905
255183 451 18127418843833384958
27425 322 18334574672289084431
3044373 193 18342459227020953903
335507 130 18341608252756578439
3534868 343 17917159294654600978
4073 2 18261394503075989955
4144715 1 18041855020737046707
44317340 157 18411979174297571117
44555599 121 18200603497350578337
4625314 4 18337669725355110205
4760202 170 18192421984078459765
5109719 28 18190748716164152809
59521099 67 18341328895462508456
6086070 43 17972310724894773296
6695519 79 17838640086019781362
68570916 9 18343579660236366471
6898599 12 18126285487546382935
9831232 110 18271245993827031967
9849439 229 18053094314522288624
99344 41 18339357573343346719
9962374 69 18411972551247815886

> <PUBCHEM_SHAPE_MULTIPOLES>
661.07
24.89
6.36
0.92
63.41
4.88
-0.01
5.34
4.75
-20.4
0.57
-0.62
0.31
1.03

> <PUBCHEM_SHAPE_SELFOVERLAP>
1489.378

> <PUBCHEM_SHAPE_VOLUME>
348.7

> <PUBCHEM_COORDINATE_TYPE>
2
5
10

$$$$
