44259654
  -OEChem-02172602273D

 40 42  0     0  0  0  0  0  0999 V2000
    0.0818    0.8690   -0.0330 O   0  0  0  0  0  0  0  0  0  0  0  0
    1.4168   -2.5660   -0.1166 O   0  0  0  0  0  0  0  0  0  0  0  0
   -3.7739   -2.0540   -0.0865 O   0  0  0  0  0  0  0  0  0  0  0  0
   -4.3099    2.6761    0.0454 O   0  0  0  0  0  0  0  0  0  0  0  0
   -1.3378   -2.9495   -0.1212 O   0  0  0  0  0  0  0  0  0  0  0  0
    6.3669    1.2502   -0.0589 O   0  0  0  0  0  0  0  0  0  0  0  0
   -1.8180   -0.6413   -0.0621 C   0  0  0  0  0  0  0  0  0  0  0  0
   -1.2696    0.6388   -0.0309 C   0  0  0  0  0  0  0  0  0  0  0  0
   -2.1054    1.7554    0.0052 C   0  0  0  0  0  0  0  0  0  0  0  0
   -4.0381    0.3030   -0.0210 C   0  0  0  0  0  0  0  0  0  0  0  0
   -3.2043   -0.8154   -0.0571 C   0  0  0  0  0  0  0  0  0  0  0  0
   -3.4900    1.5858    0.0100 C   0  0  0  0  0  0  0  0  0  0  0  0
    0.9380   -0.2198   -0.0795 C   0  0  0  0  0  0  0  0  0  0  0  0
   -0.9145   -1.8014   -0.0983 C   0  0  0  0  0  0  0  0  0  0  0  0
    0.5382   -1.5044   -0.1038 C   0  0  0  0  0  0  0  0  0  0  0  0
    2.3602    0.1666   -0.0746 C   0  0  0  0  0  0  0  0  0  0  0  0
   -1.5246    3.1334    0.0399 C   0  0  0  0  0  0  0  0  0  0  0  0
   -5.5242    0.1294   -0.0155 C   0  0  0  0  0  0  0  0  0  0  0  0
    3.1896   -0.2127   -1.1301 C   0  0  0  0  0  0  0  0  0  0  0  0
    2.8772    0.9107    0.9859 C   0  0  0  0  0  0  0  0  0  0  0  0
    4.5358    0.1517   -1.1249 C   0  0  0  0  0  0  0  0  0  0  0  0
    4.2236    1.2751    0.9912 C   0  0  0  0  0  0  0  0  0  0  0  0
    5.0529    0.8956   -0.0642 C   0  0  0  0  0  0  0  0  0  0  0  0
    1.7296   -2.9763    1.2008 C   0  0  0  0  0  0  0  0  0  0  0  0
   -1.8447    3.7042   -0.8388 H   0  0  0  0  0  0  0  0  0  0  0  0
   -1.8379    3.6564    0.9502 H   0  0  0  0  0  0  0  0  0  0  0  0
   -0.4306    3.1465    0.0365 H   0  0  0  0  0  0  0  0  0  0  0  0
   -5.8770   -0.0357    1.0075 H   0  0  0  0  0  0  0  0  0  0  0  0
   -6.0443    1.0013   -0.4255 H   0  0  0  0  0  0  0  0  0  0  0  0
   -5.8300   -0.7202   -0.6357 H   0  0  0  0  0  0  0  0  0  0  0  0
    2.8045   -0.7863   -1.9700 H   0  0  0  0  0  0  0  0  0  0  0  0
    2.2451    1.2120    1.8177 H   0  0  0  0  0  0  0  0  0  0  0  0
   -3.0960   -2.7456   -0.1158 H   0  0  0  0  0  0  0  0  0  0  0  0
   -3.8061    3.5038    0.0597 H   0  0  0  0  0  0  0  0  0  0  0  0
    5.1768   -0.1455   -1.9505 H   0  0  0  0  0  0  0  0  0  0  0  0
    4.6145    1.8540    1.8237 H   0  0  0  0  0  0  0  0  0  0  0  0
    2.4193   -3.8233    1.1373 H   0  0  0  0  0  0  0  0  0  0  0  0
    0.8348   -3.3120    1.7366 H   0  0  0  0  0  0  0  0  0  0  0  0
    2.2271   -2.1818    1.7668 H   0  0  0  0  0  0  0  0  0  0  0  0
    6.5523    1.7603    0.7482 H   0  0  0  0  0  0  0  0  0  0  0  0
  1  8  1  0  0  0  0
  1 13  1  0  0  0  0
  2 15  1  0  0  0  0
  2 24  1  0  0  0  0
  3 11  1  0  0  0  0
  3 33  1  0  0  0  0
  4 12  1  0  0  0  0
  4 34  1  0  0  0  0
  5 14  2  0  0  0  0
  6 23  1  0  0  0  0
  6 40  1  0  0  0  0
  7  8  1  0  0  0  0
  7 11  2  0  0  0  0
  7 14  1  0  0  0  0
  8  9  2  0  0  0  0
  9 12  1  0  0  0  0
  9 17  1  0  0  0  0
 10 11  1  0  0  0  0
 10 12  2  0  0  0  0
 10 18  1  0  0  0  0
 13 15  2  0  0  0  0
 13 16  1  0  0  0  0
 14 15  1  0  0  0  0
 16 19  2  0  0  0  0
 16 20  1  0  0  0  0
 17 25  1  0  0  0  0
 17 26  1  0  0  0  0
 17 27  1  0  0  0  0
 18 28  1  0  0  0  0
 18 29  1  0  0  0  0
 18 30  1  0  0  0  0
 19 21  1  0  0  0  0
 19 31  1  0  0  0  0
 20 22  2  0  0  0  0
 20 32  1  0  0  0  0
 21 23  2  0  0  0  0
 21 35  1  0  0  0  0
 22 23  1  0  0  0  0
 22 36  1  0  0  0  0
 24 37  1  0  0  0  0
 24 38  1  0  0  0  0
 24 39  1  0  0  0  0
M  END
> <PUBCHEM_COMPOUND_CID>
44259654

> <PUBCHEM_CONFORMER_RMSD>
0.6

> <PUBCHEM_CONFORMER_DIVERSEORDER>
1
2

> <PUBCHEM_MMFF94_PARTIAL_CHARGES>
31
1 -0.16
10 -0.14
11 0.08
12 0.08
13 0.05
14 0.47
15 0.09
16 0.03
17 0.14
18 0.14
19 -0.15
2 -0.36
20 -0.15
21 -0.15
22 -0.15
23 0.08
24 0.28
3 -0.53
31 0.15
32 0.15
33 0.45
34 0.45
35 0.15
36 0.15
4 -0.53
40 0.45
5 -0.57
6 -0.53
7 0.09
8 0.08
9 -0.14

> <PUBCHEM_EFFECTIVE_ROTOR_COUNT>
2

> <PUBCHEM_PHARMACOPHORE_FEATURES>
9
1 1 acceptor
1 2 acceptor
1 3 donor
1 4 donor
1 5 acceptor
1 6 donor
6 1 7 8 13 14 15 rings
6 16 19 20 21 22 23 rings
6 7 8 9 10 11 12 rings

> <PUBCHEM_HEAVY_ATOM_COUNT>
24

> <PUBCHEM_ATOM_DEF_STEREO_COUNT>
0

> <PUBCHEM_ATOM_UDEF_STEREO_COUNT>
0

> <PUBCHEM_BOND_DEF_STEREO_COUNT>
0

> <PUBCHEM_BOND_UDEF_STEREO_COUNT>
0

> <PUBCHEM_ISOTOPIC_ATOM_COUNT>
0

> <PUBCHEM_COMPONENT_COUNT>
1

> <PUBCHEM_CACTVS_TAUTO_COUNT>
57

> <PUBCHEM_CONFORMER_ID>
02A3594600000001

> <PUBCHEM_MMFF94_ENERGY>
83.4908

> <PUBCHEM_FEATURE_SELFOVERLAP>
45.704

> <PUBCHEM_SHAPE_FINGERPRINT>
10319926 262 18269818935698204568
10411042 1 17690280834157685447
10498660 4 18410854326357555213
10646746 165 18412825794014091388
10670039 82 18262248729031626044
10967382 1 18411136914252528183
1100329 8 18265053724611244649
11578080 2 17242437322907536287
12173636 292 18339078181700374029
12236239 1 17603863451368175220
12390115 104 18200607903623007241
12403259 415 18059854012950911392
12403814 3 17385719201634428173
12596602 18 17095808836192952264
12788726 201 17174358071657250826
12838862 33 18338498808219481693
13140716 1 17976544132830805555
13402501 40 18201717396839181680
14790565 3 18410019865841564981
15196674 1 18338798897394048893
16087824 20 18412542146897512647
19591789 44 18339360902259583737
19784866 170 18408604768679802681
200 152 15482680078312142168
20510252 161 18343585148339413857
20645477 70 16845305904093915804
21033648 29 18059847389710551000
21267235 1 18339367478229099207
21279426 13 18270968925559749254
22122407 14 15791740693166810420
221357 26 17918277536862056160
22393880 68 18268153054426285902
23227448 37 18271241750087509140
23366157 5 17897448298539009970
23402539 116 18342171219335565590
23557571 272 18272657891273587484
23559900 14 18057041303230122630
23569914 152 16906368149688876277
25147074 1 18337655430871129143
34934 24 18410851054146058279
350125 39 18192431866317613886
469060 322 18190482595652996201
474 4 17822019700433627798
495365 180 17060048286036198370
5104073 3 18191594056148789025
5265222 85 18268439117562205358
5486654 2 18411701002124564589
59755656 215 18341619187874955910
59755656 520 18409443709137632238
7097593 13 17611735717873051091
7364860 26 18196933275691453206
7808743 9 18337670918876542024
9981440 41 18260832600456175282

> <PUBCHEM_SHAPE_MULTIPOLES>
458.69
10.87
3.08
0.86
5.16
0.88
-0.03
-5.15
0.52
-1.52
-0.5
0.87
0.09
-0.03

> <PUBCHEM_SHAPE_SELFOVERLAP>
1017.71

> <PUBCHEM_SHAPE_VOLUME>
246.7

> <PUBCHEM_COORDINATE_TYPE>
2
5
10

$$$$
