102434451
  -OEChem-02172602433D

 49 49  0     0  0  0  0  0  0999 V2000
   -0.5668   -1.8901   -2.2889 O   0  0  0  0  0  0  0  0  0  0  0  0
   -4.6880    0.7156    0.6538 O   0  0  0  0  0  0  0  0  0  0  0  0
    1.4845   -2.3393   -1.3492 O   0  0  0  0  0  0  0  0  0  0  0  0
    1.3078   -2.4250    2.1850 O   0  0  0  0  0  0  0  0  0  0  0  0
   -0.3239   -3.4706    0.9309 O   0  0  0  0  0  0  0  0  0  0  0  0
   -3.9254    2.5839   -0.4717 O   0  0  0  0  0  0  0  0  0  0  0  0
   -0.2220    0.5812   -0.8662 N   0  0  0  0  0  0  0  0  0  0  0  0
    0.8104    1.2751   -1.6433 C   0  0  0  0  0  0  0  0  0  0  0  0
    2.0375    1.5028   -0.8049 C   0  0  0  0  0  0  0  0  0  0  0  0
    3.1666    0.7050   -0.9899 C   0  0  0  0  0  0  0  0  0  0  0  0
    2.0477    2.5140    0.1559 C   0  0  0  0  0  0  0  0  0  0  0  0
    4.3162    1.9293    0.7469 C   0  0  0  0  0  0  0  0  0  0  0  0
    0.0310   -0.6697   -0.3821 C   0  0  0  0  0  0  0  0  0  0  0  0
    4.3060    0.9183   -0.2141 C   0  0  0  0  0  0  0  0  0  0  0  0
    3.1870    2.7273    0.9317 C   0  0  0  0  0  0  0  0  0  0  0  0
   -1.4472    1.1801   -0.7072 C   0  0  0  0  0  0  0  0  0  0  0  0
    5.5344    2.1582    1.5763 C   0  0  0  0  0  0  0  0  0  0  0  0
   -0.0337   -1.0768    0.8980 C   0  0  0  0  0  0  0  0  0  0  0  0
    0.4272   -1.7247   -1.3711 C   0  0  0  0  0  0  0  0  0  0  0  0
   -2.5217    0.6722   -0.0940 C   0  0  0  0  0  0  0  0  0  0  0  0
    0.2649   -2.4717    1.3113 C   0  0  0  0  0  0  0  0  0  0  0  0
   -3.7684    1.4629   -0.0143 C   0  0  0  0  0  0  0  0  0  0  0  0
   -5.9698    1.3289    0.8276 C   0  0  0  0  0  0  0  0  0  0  0  0
   -0.3212   -2.8741   -3.2995 C   0  0  0  0  0  0  0  0  0  0  0  0
   -6.8731    0.3777    1.5832 C   0  0  0  0  0  0  0  0  0  0  0  0
    1.7398   -3.6905    2.6959 C   0  0  0  0  0  0  0  0  0  0  0  0
    0.4647    2.2472   -2.0214 H   0  0  0  0  0  0  0  0  0  0  0  0
    1.0572    0.6969   -2.5438 H   0  0  0  0  0  0  0  0  0  0  0  0
    3.1764   -0.0824   -1.7383 H   0  0  0  0  0  0  0  0  0  0  0  0
    1.1742    3.1423    0.3087 H   0  0  0  0  0  0  0  0  0  0  0  0
    5.1792    0.2897   -0.3671 H   0  0  0  0  0  0  0  0  0  0  0  0
    3.1822    3.5171    1.6782 H   0  0  0  0  0  0  0  0  0  0  0  0
   -1.4919    2.1753   -1.1394 H   0  0  0  0  0  0  0  0  0  0  0  0
    5.4850    1.5572    2.4897 H   0  0  0  0  0  0  0  0  0  0  0  0
    6.4429    1.8882    1.0273 H   0  0  0  0  0  0  0  0  0  0  0  0
    5.6303    3.2132    1.8547 H   0  0  0  0  0  0  0  0  0  0  0  0
   -0.2566   -0.3779    1.6988 H   0  0  0  0  0  0  0  0  0  0  0  0
   -2.5445   -0.3193    0.3423 H   0  0  0  0  0  0  0  0  0  0  0  0
   -5.8553    2.2598    1.3941 H   0  0  0  0  0  0  0  0  0  0  0  0
   -6.4040    1.5514   -0.1536 H   0  0  0  0  0  0  0  0  0  0  0  0
   -1.1901   -2.9046   -3.9622 H   0  0  0  0  0  0  0  0  0  0  0  0
   -0.1918   -3.8603   -2.8435 H   0  0  0  0  0  0  0  0  0  0  0  0
    0.5600   -2.6003   -3.8874 H   0  0  0  0  0  0  0  0  0  0  0  0
   -6.4429    0.1315    2.5596 H   0  0  0  0  0  0  0  0  0  0  0  0
   -7.8637    0.8157    1.7339 H   0  0  0  0  0  0  0  0  0  0  0  0
   -6.9826   -0.5652    1.0373 H   0  0  0  0  0  0  0  0  0  0  0  0
    2.5753   -3.5142    3.3785 H   0  0  0  0  0  0  0  0  0  0  0  0
    2.0832   -4.3312    1.8781 H   0  0  0  0  0  0  0  0  0  0  0  0
    0.9285   -4.1719    3.2502 H   0  0  0  0  0  0  0  0  0  0  0  0
  1 19  1  0  0  0  0
  1 24  1  0  0  0  0
  2 22  1  0  0  0  0
  2 23  1  0  0  0  0
  3 19  2  0  0  0  0
  4 21  1  0  0  0  0
  4 26  1  0  0  0  0
  5 21  2  0  0  0  0
  6 22  2  0  0  0  0
  7  8  1  0  0  0  0
  7 13  1  0  0  0  0
  7 16  1  0  0  0  0
  8  9  1  0  0  0  0
  8 27  1  0  0  0  0
  8 28  1  0  0  0  0
  9 10  2  0  0  0  0
  9 11  1  0  0  0  0
 10 14  1  0  0  0  0
 10 29  1  0  0  0  0
 11 15  2  0  0  0  0
 11 30  1  0  0  0  0
 12 14  2  0  0  0  0
 12 15  1  0  0  0  0
 12 17  1  0  0  0  0
 13 18  2  0  0  0  0
 13 19  1  0  0  0  0
 14 31  1  0  0  0  0
 15 32  1  0  0  0  0
 16 20  2  0  0  0  0
 16 33  1  0  0  0  0
 17 34  1  0  0  0  0
 17 35  1  0  0  0  0
 17 36  1  0  0  0  0
 18 21  1  0  0  0  0
 18 37  1  0  0  0  0
 20 22  1  0  0  0  0
 20 38  1  0  0  0  0
 23 25  1  0  0  0  0
 23 39  1  0  0  0  0
 23 40  1  0  0  0  0
 24 41  1  0  0  0  0
 24 42  1  0  0  0  0
 24 43  1  0  0  0  0
 25 44  1  0  0  0  0
 25 45  1  0  0  0  0
 25 46  1  0  0  0  0
 26 47  1  0  0  0  0
 26 48  1  0  0  0  0
 26 49  1  0  0  0  0
M  END
> <PUBCHEM_COMPOUND_CID>
102434451

> <PUBCHEM_CONFORMER_RMSD>
1

> <PUBCHEM_CONFORMER_DIVERSEORDER>
1
113
51
109
88
134
20
103
135
50
124
78
133
79
116
83
96
82
93
52
6
59
123
13
46
121
63
114
99
5
2
105
127
39
54
126
62
97
19
129
61
10
55
112
75
56
80
22
98
110
47
89
128
4
122
117
21
49
57
104
9
74
53
25
100
40
76
33
14
91
34
35
107
84
32
70
73
7
44
131
48
16
8
60
67
17
106
120
29
31
130
18
23
86
94
24
28
45
119
36
115
3
12
111
95
132
71
108
11
30
15
77
92
58
125
85
27
118
66
64
69
81
42
87
41
37
26
38
68
72
65
102
43
101
90

> <PUBCHEM_MMFF94_PARTIAL_CHARGES>
32
1 -0.43
10 -0.15
11 -0.15
12 -0.14
13 0.11
14 -0.15
15 -0.15
16 -0.05
17 0.14
18 -0.14
19 0.71
2 -0.43
20 -0.14
21 0.71
22 0.71
23 0.28
24 0.28
26 0.28
29 0.15
3 -0.57
30 0.15
31 0.15
32 0.15
33 0.15
37 0.15
38 0.15
4 -0.43
5 -0.57
6 -0.57
7 -0.57
8 0.51
9 -0.14

> <PUBCHEM_EFFECTIVE_ROTOR_COUNT>
11

> <PUBCHEM_PHARMACOPHORE_FEATURES>
5
1 3 acceptor
1 5 acceptor
1 6 acceptor
1 7 cation
6 9 10 11 12 14 15 rings

> <PUBCHEM_HEAVY_ATOM_COUNT>
26

> <PUBCHEM_ATOM_DEF_STEREO_COUNT>
0

> <PUBCHEM_ATOM_UDEF_STEREO_COUNT>
0

> <PUBCHEM_BOND_DEF_STEREO_COUNT>
2

> <PUBCHEM_BOND_UDEF_STEREO_COUNT>
0

> <PUBCHEM_ISOTOPIC_ATOM_COUNT>
0

> <PUBCHEM_COMPONENT_COUNT>
1

> <PUBCHEM_CACTVS_TAUTO_COUNT>
2

> <PUBCHEM_CONFORMER_ID>
061B069300000001

> <PUBCHEM_MMFF94_ENERGY>
79.0596

> <PUBCHEM_FEATURE_SELFOVERLAP>
25.373

> <PUBCHEM_SHAPE_FINGERPRINT>
10764073 3 16443611424738431995
11578080 2 15910222060573546978
12592029 89 18260269624743440961
12788726 201 17539984187440943930
12839892 36 17894633699116377401
13692114 37 18340494486253913079
13955234 65 17916039962327994391
14028597 1 17975103729364428803
14863182 85 17313684663049620659
15420108 30 18200293438780969613
17492 54 11743546756892938576
20197701 30 18413103978724372741
20600515 1 16532280152944778476
21403212 168 18337095809448654352
21524375 3 18411980290694136805
22224240 67 18409167753389121033
22956985 138 17460308850391736746
23419403 2 17979677551785846538
23558518 356 17834383906172549116
3411729 13 18339362968155060729
38695281 34 18131631162561498245
427121 178 18409736170229086120
4340502 62 18337121120265611273
465052 167 16081375180274992153
58807428 26 18186799209766108720
59755656 215 18340222799217097997
81228 2 17760910132478284796
9841814 1 17975704892010387841

> <PUBCHEM_SHAPE_MULTIPOLES>
494.87
10.4
4.34
2.45
13.91
3.87
-0.57
-11.85
6.7
-1.98
1.26
-0.46
3.07
-0.34

> <PUBCHEM_SHAPE_SELFOVERLAP>
1013.754

> <PUBCHEM_SHAPE_VOLUME>
287.3

> <PUBCHEM_COORDINATE_TYPE>
2
5
10

$$$$
