11956549
  -OEChem-02172602453D

 60 64  0     1  0  0  0  0  0999 V2000
    4.5823   -2.8078   -0.1170 S   0  0  0  0  0  0  0  0  0  0  0  0
    3.6541    0.2357    0.0802 N   0  0  0  0  0  0  0  0  0  0  0  0
   -0.8990   -0.9195   -0.0104 N   0  0  0  0  0  0  0  0  0  0  0  0
   -3.6557   -0.0927    0.0317 N   0  0  0  0  0  0  0  0  0  0  0  0
    1.3571   -0.3314    0.0335 N   0  0  0  0  0  0  0  0  0  0  0  0
    0.6609   -2.6466   -0.1089 N   0  0  0  0  0  0  0  0  0  0  0  0
    3.3904    1.6579    0.1713 C   0  0  1  0  0  0  0  0  0  0  0  0
    4.6232    2.3981    0.7299 C   0  0  1  0  0  0  0  0  0  0  0  0
    3.0087    2.1686   -1.2224 C   0  0  0  0  0  0  0  0  0  0  0  0
    4.4101    3.9202    0.6901 C   0  0  0  0  0  0  0  0  0  0  0  0
    2.8058    3.6795   -1.2385 C   0  0  0  0  0  0  0  0  0  0  0  0
    4.0326    4.4094   -0.7048 C   0  0  0  0  0  0  0  0  0  0  0  0
    4.9460    1.9616    2.1628 C   0  0  0  0  0  0  0  0  0  0  0  0
    2.6448   -0.7370    0.0140 C   0  0  0  0  0  0  0  0  0  0  0  0
    2.9951   -2.0610   -0.0705 C   0  0  0  0  0  0  0  0  0  0  0  0
   -1.2603    0.4957    0.0695 C   0  0  0  0  0  0  0  0  0  0  0  0
   -1.9812   -1.9017   -0.0711 C   0  0  0  0  0  0  0  0  0  0  0  0
   -2.6255    0.7499   -0.5755 C   0  0  0  0  0  0  0  0  0  0  0  0
   -3.2427   -1.3692    0.6144 C   0  0  0  0  0  0  0  0  0  0  0  0
    0.4347   -1.3189   -0.0309 C   0  0  0  0  0  0  0  0  0  0  0  0
    1.9630   -2.9795   -0.1334 C   0  0  0  0  0  0  0  0  0  0  0  0
    2.4180   -4.4136   -0.1451 C   0  0  0  0  0  0  0  0  0  0  0  0
    3.8737   -4.4069   -0.6250 C   0  0  0  0  0  0  0  0  0  0  0  0
   -4.9891    0.3079    0.0538 C   0  0  0  0  0  0  0  0  0  0  0  0
   -5.8613   -0.0925    1.0933 C   0  0  0  0  0  0  0  0  0  0  0  0
   -5.5272    1.1318   -0.9627 C   0  0  0  0  0  0  0  0  0  0  0  0
   -7.1972    0.3084    1.1149 C   0  0  0  0  0  0  0  0  0  0  0  0
   -6.8631    1.5327   -0.9409 C   0  0  0  0  0  0  0  0  0  0  0  0
   -7.6981    1.1209    0.0979 C   0  0  0  0  0  0  0  0  0  0  0  0
    2.5523    1.8372    0.8590 H   0  0  0  0  0  0  0  0  0  0  0  0
    5.4957    2.1589    0.1058 H   0  0  0  0  0  0  0  0  0  0  0  0
    2.0907    1.6867   -1.5784 H   0  0  0  0  0  0  0  0  0  0  0  0
    3.7929    1.9033   -1.9443 H   0  0  0  0  0  0  0  0  0  0  0  0
    5.3232    4.4330    1.0156 H   0  0  0  0  0  0  0  0  0  0  0  0
    3.6192    4.2037    1.3965 H   0  0  0  0  0  0  0  0  0  0  0  0
    2.5947    4.0126   -2.2608 H   0  0  0  0  0  0  0  0  0  0  0  0
    1.9303    3.9380   -0.6303 H   0  0  0  0  0  0  0  0  0  0  0  0
    3.8365    5.4872   -0.6764 H   0  0  0  0  0  0  0  0  0  0  0  0
    4.8772    4.2557   -1.3876 H   0  0  0  0  0  0  0  0  0  0  0  0
    4.5718   -0.0524   -0.2453 H   0  0  0  0  0  0  0  0  0  0  0  0
    5.1849    0.8943    2.2089 H   0  0  0  0  0  0  0  0  0  0  0  0
    5.8129    2.5091    2.5480 H   0  0  0  0  0  0  0  0  0  0  0  0
    4.1018    2.1496    2.8349 H   0  0  0  0  0  0  0  0  0  0  0  0
   -0.5322    1.1292   -0.4511 H   0  0  0  0  0  0  0  0  0  0  0  0
   -1.2748    0.8019    1.1227 H   0  0  0  0  0  0  0  0  0  0  0  0
   -1.7080   -2.8365    0.4327 H   0  0  0  0  0  0  0  0  0  0  0  0
   -2.1909   -2.1383   -1.1215 H   0  0  0  0  0  0  0  0  0  0  0  0
   -2.5757    0.5415   -1.6516 H   0  0  0  0  0  0  0  0  0  0  0  0
   -2.8641    1.8130   -0.4482 H   0  0  0  0  0  0  0  0  0  0  0  0
   -3.0565   -1.2336    1.6871 H   0  0  0  0  0  0  0  0  0  0  0  0
   -4.0305   -2.1242    0.5012 H   0  0  0  0  0  0  0  0  0  0  0  0
    2.3513   -4.8155    0.8727 H   0  0  0  0  0  0  0  0  0  0  0  0
    1.7919   -5.0265   -0.8010 H   0  0  0  0  0  0  0  0  0  0  0  0
    3.9123   -4.4620   -1.7186 H   0  0  0  0  0  0  0  0  0  0  0  0
    4.4424   -5.2468   -0.2165 H   0  0  0  0  0  0  0  0  0  0  0  0
   -5.5018   -0.7151    1.9094 H   0  0  0  0  0  0  0  0  0  0  0  0
   -4.9088    1.4608   -1.7948 H   0  0  0  0  0  0  0  0  0  0  0  0
   -7.8469   -0.0095    1.9251 H   0  0  0  0  0  0  0  0  0  0  0  0
   -7.2544    2.1630   -1.7341 H   0  0  0  0  0  0  0  0  0  0  0  0
   -8.7381    1.4330    0.1147 H   0  0  0  0  0  0  0  0  0  0  0  0
  1 15  1  0  0  0  0
  1 23  1  0  0  0  0
  2  7  1  0  0  0  0
  2 14  1  0  0  0  0
  2 40  1  0  0  0  0
  3 16  1  0  0  0  0
  3 17  1  0  0  0  0
  3 20  1  0  0  0  0
  4 18  1  0  0  0  0
  4 19  1  0  0  0  0
  4 24  1  0  0  0  0
  5 14  2  0  0  0  0
  5 20  1  0  0  0  0
  6 20  2  0  0  0  0
  6 21  1  0  0  0  0
  7  8  1  0  0  0  0
  7  9  1  0  0  0  0
  7 30  1  0  0  0  0
  8 10  1  0  0  0  0
  8 13  1  0  0  0  0
  8 31  1  0  0  0  0
  9 11  1  0  0  0  0
  9 32  1  0  0  0  0
  9 33  1  0  0  0  0
 10 12  1  0  0  0  0
 10 34  1  0  0  0  0
 10 35  1  0  0  0  0
 11 12  1  0  0  0  0
 11 36  1  0  0  0  0
 11 37  1  0  0  0  0
 12 38  1  0  0  0  0
 12 39  1  0  0  0  0
 13 41  1  0  0  0  0
 13 42  1  0  0  0  0
 13 43  1  0  0  0  0
 14 15  1  0  0  0  0
 15 21  2  0  0  0  0
 16 18  1  0  0  0  0
 16 44  1  0  0  0  0
 16 45  1  0  0  0  0
 17 19  1  0  0  0  0
 17 46  1  0  0  0  0
 17 47  1  0  0  0  0
 18 48  1  0  0  0  0
 18 49  1  0  0  0  0
 19 50  1  0  0  0  0
 19 51  1  0  0  0  0
 21 22  1  0  0  0  0
 22 23  1  0  0  0  0
 22 52  1  0  0  0  0
 22 53  1  0  0  0  0
 23 54  1  0  0  0  0
 23 55  1  0  0  0  0
 24 25  2  0  0  0  0
 24 26  1  0  0  0  0
 25 27  1  0  0  0  0
 25 56  1  0  0  0  0
 26 28  2  0  0  0  0
 26 57  1  0  0  0  0
 27 29  2  0  0  0  0
 27 58  1  0  0  0  0
 28 29  1  0  0  0  0
 28 59  1  0  0  0  0
 29 60  1  0  0  0  0
M  END
> <PUBCHEM_COMPOUND_CID>
11956549

> <PUBCHEM_CONFORMER_RMSD>
0.8

> <PUBCHEM_CONFORMER_DIVERSEORDER>
1
103
183
352
264
333
110
77
222
239
94
10
19
176
326
300
45
181
248
190
171
343
249
321
122
173
129
35
349
328
345
117
330
170
322
97
235
346
338
284
252
95
91
199
243
68
259
152
272
46
156
221
145
342
131
121
172
136
238
98
111
334
154
106
324
11
307
246
116
133
289
191
93
298
160
166
256
179
72
143
193
295
344
275
283
88
85
296
251
61
195
351
212
192
114
147
245
279
148
185
335
270
240
337
265
52
244
241
41
309
281
109
155
316
348
319
317
115
66
310
313
33
260
254
216
146
30
34
51
83
24
89
285
189
293
158
36
282
130
229
63
140
25
286
223
144
257
16
219
149
340
203
71
287
276
336
227
228
220
29
266
5
151
188
312
204
58
347
27
303
6
273
47
211
232
90
167
4
142
102
38
306
277
165
123
67
20
231
157
200
301
139
44
327
75
8
128
99
308
339
288
56
50
261
159
230
37
299
237
202
107
22
325
292
331
31
43
269
198
215
250
125
224
49
258
194
104
291
113
40
234
73
218
138
209
320
108
182
100
210
60
205
132
318
76
197
278
184
196
84
271
12
294
69
54
177
81
233
79
247
162
15
32
62
174
225
262
164
163
180
64
217
9
290
214
80
315
208
18
86
267
26
329
13
119
274
169
242
78
105
127
87
150
302
332
236
268
42
124
59
253
112
297
126
153
135
3
120
118
201
39
57
48
341
65
187
2
28
323
14
17
350
96
280
23
178
21
161
92
168
304
314
213
311
305
7
101
70
206
207
226
53
175
141
263
55
137
186
74
82
255
134

> <PUBCHEM_MMFF94_PARTIAL_CHARGES>
29
1 -0.33
14 0.41
15 0.1
16 0.37
17 0.37
18 0.37
19 0.37
2 -0.87
20 0.72
21 0.17
22 0.14
23 0.23
24 0.1
25 -0.15
26 -0.15
27 -0.15
28 -0.15
29 -0.15
3 -0.84
4 -0.84
40 0.4
5 -0.62
56 0.15
57 0.15
58 0.15
59 0.15
6 -0.62
60 0.15
7 0.37

> <PUBCHEM_EFFECTIVE_ROTOR_COUNT>
7

> <PUBCHEM_PHARMACOPHORE_FEATURES>
8
1 2 donor
1 4 cation
4 3 5 6 20 cation
5 1 15 21 22 23 rings
6 24 25 26 27 28 29 rings
6 3 4 16 17 18 19 rings
6 5 6 14 15 20 21 rings
6 7 8 9 10 11 12 rings

> <PUBCHEM_HEAVY_ATOM_COUNT>
29

> <PUBCHEM_ATOM_DEF_STEREO_COUNT>
0

> <PUBCHEM_ATOM_UDEF_STEREO_COUNT>
2

> <PUBCHEM_BOND_DEF_STEREO_COUNT>
0

> <PUBCHEM_BOND_UDEF_STEREO_COUNT>
0

> <PUBCHEM_ISOTOPIC_ATOM_COUNT>
0

> <PUBCHEM_COMPONENT_COUNT>
1

> <PUBCHEM_CACTVS_TAUTO_COUNT>
3

> <PUBCHEM_CONFORMER_ID>
00B6714500000001

> <PUBCHEM_MMFF94_ENERGY>
95.6376

> <PUBCHEM_FEATURE_SELFOVERLAP>
40.668

> <PUBCHEM_SHAPE_FINGERPRINT>
10 15 17967815007171064713
10050765 1 18410575128199236775
10411042 1 17979074882402678830
10673678 19 18340772645072272697
10675989 125 18131069397998738184
10763959 59 18263082115779340093
10835480 77 18335698318049778957
10937287 8 18123190362356020902
11059845 2 17693068058418298896
11386260 185 18339637828897668149
11505856 67 17332807652637057484
12107183 9 18047736377602156456
12166972 35 18128254489253771003
12422481 6 17604416509442767445
12677640 9 17765998298804317137
12788726 201 17541104161063844346
13533116 47 18341052917531856807
13878862 14 18336811023204808317
13955234 65 18410575054772907722
13965767 371 17897993867107749332
14068700 686 18121227738201223163
14117953 113 18410291437024585612
14170010 4 18341328886587834554
14294032 229 17981894351615637458
14461889 52 18261958556872735059
14556957 393 17416960639813206841
14790565 3 17978232986616725908
15400415 2 18050289472612211725
15419008 47 17751081310311378863
15439362 3 18267590281542729428
15475509 35 16733533915411278642
15483637 11 17977383832912731813
16988056 13 18337391531232383916
17810953 82 18336547217708241788
17844677 252 18266746788351286773
19319366 153 18273209828540237757
19427546 62 18409731793684129547
1979834 28 18260551151196643981
20715895 44 18410288150994458072
21033648 29 17749382625825209133
21049683 271 18264216820833701134
21133410 127 17968375744705438804
21365058 113 18125173631971809862
21859007 373 17314492765694577549
22311459 1 18268149751866493111
23559900 14 18335984177323013515
24771750 20 18263098728876592750
24893989 43 11458726996533222569
249057 25 17631735959637091193
249999 5 18410013234226560134
2748736 6 18340198708856765321
3411729 13 18334855047479009977
397830 11 18115037398185323819
4144715 1 18114474388123666785
4408954 64 16953911165623398768
44555599 121 18057893451091922873
5104073 3 18334296487605041155
5109719 28 18265063594815499433
5219985 13 18195249047046993596
5385378 56 18413386540791688984
57307002 103 18339655472634564051
5912855 24 18129652128016735519
6609424 69 18190447278205817788
6695519 79 17983036714343428795
6697151 62 17829584194673520191
9849439 229 18196369449496014928
9896288 288 17468761140741629090
9962374 69 18341039727830540735
9981440 41 18121217846969986594

> <PUBCHEM_SHAPE_MULTIPOLES>
575.75
17.38
5.84
1.13
37.28
0.64
0.27
-9.83
2.47
-14.53
-1.16
-0.39
-0.85
1.49

> <PUBCHEM_SHAPE_SELFOVERLAP>
1217.96

> <PUBCHEM_SHAPE_VOLUME>
323.8

> <PUBCHEM_COORDINATE_TYPE>
2
5
10

$$$$
