5281721
  -OEChem-02172602263D

 36 37  0     1  0  0  0  0  0999 V2000
    0.9099   -0.1788    0.2931 O   0  0  0  0  0  0  0  0  0  0  0  0
   -1.0726    2.9611    0.7625 O   0  0  0  0  0  0  0  0  0  0  0  0
    2.0805   -1.3459   -1.3095 O   0  0  0  0  0  0  0  0  0  0  0  0
   -2.4648   -1.1895    0.5852 N   0  0  2  0  0  0  0  0  0  0  0  0
   -1.5046   -0.0457    0.5088 C   0  0  1  0  0  0  0  0  0  0  0  0
   -0.3159   -0.5491   -0.3125 C   0  0  2  0  0  0  0  0  0  0  0  0
   -0.4871   -2.0584   -0.3093 C   0  0  0  0  0  0  0  0  0  0  0  0
   -1.9930   -2.2074   -0.3660 C   0  0  0  0  0  0  0  0  0  0  0  0
   -2.2692    1.0889   -0.1030 C   0  0  0  0  0  0  0  0  0  0  0  0
   -3.7897   -0.6468    0.2146 C   0  0  0  0  0  0  0  0  0  0  0  0
   -3.5501    0.7457   -0.2647 C   0  0  0  0  0  0  0  0  0  0  0  0
   -1.6434    2.4001   -0.4109 C   0  0  0  0  0  0  0  0  0  0  0  0
    2.0465   -0.6459   -0.3076 C   0  0  0  0  0  0  0  0  0  0  0  0
    3.2506   -0.1798    0.4450 C   0  0  0  0  0  0  0  0  0  0  0  0
    3.7512   -1.0232    1.5798 C   0  0  0  0  0  0  0  0  0  0  0  0
    3.7719    0.9960    0.0488 C   0  0  0  0  0  0  0  0  0  0  0  0
    3.2799    1.8786   -1.0543 C   0  0  0  0  0  0  0  0  0  0  0  0
   -1.2005    0.2256    1.5275 H   0  0  0  0  0  0  0  0  0  0  0  0
   -0.3505   -0.1639   -1.3408 H   0  0  0  0  0  0  0  0  0  0  0  0
   -0.0740   -2.5079    0.6027 H   0  0  0  0  0  0  0  0  0  0  0  0
   -0.0182   -2.5490   -1.1669 H   0  0  0  0  0  0  0  0  0  0  0  0
   -2.3386   -2.0141   -1.3900 H   0  0  0  0  0  0  0  0  0  0  0  0
   -2.3176   -3.2094   -0.0704 H   0  0  0  0  0  0  0  0  0  0  0  0
   -4.4298   -0.6223    1.1033 H   0  0  0  0  0  0  0  0  0  0  0  0
   -4.2996   -1.2453   -0.5483 H   0  0  0  0  0  0  0  0  0  0  0  0
   -4.3215    1.3895   -0.6612 H   0  0  0  0  0  0  0  0  0  0  0  0
   -2.3805    3.1081   -0.8040 H   0  0  0  0  0  0  0  0  0  0  0  0
   -0.8540    2.2800   -1.1597 H   0  0  0  0  0  0  0  0  0  0  0  0
   -0.6648    3.8059    0.5062 H   0  0  0  0  0  0  0  0  0  0  0  0
    4.6183   -0.5685    2.0697 H   0  0  0  0  0  0  0  0  0  0  0  0
    2.9668   -1.1526    2.3323 H   0  0  0  0  0  0  0  0  0  0  0  0
    4.0485   -2.0111    1.2140 H   0  0  0  0  0  0  0  0  0  0  0  0
    4.6432    1.3718    0.5820 H   0  0  0  0  0  0  0  0  0  0  0  0
    3.0185    2.8606   -0.6474 H   0  0  0  0  0  0  0  0  0  0  0  0
    2.4031    1.4929   -1.5800 H   0  0  0  0  0  0  0  0  0  0  0  0
    4.0758    2.0190   -1.7925 H   0  0  0  0  0  0  0  0  0  0  0  0
  1  6  1  0  0  0  0
  1 13  1  0  0  0  0
  2 12  1  0  0  0  0
  2 29  1  0  0  0  0
  3 13  2  0  0  0  0
  4  5  1  0  0  0  0
  4  8  1  0  0  0  0
  4 10  1  0  0  0  0
  5  6  1  0  0  0  0
  5  9  1  0  0  0  0
  5 18  1  0  0  0  0
  6  7  1  0  0  0  0
  6 19  1  0  0  0  0
  7  8  1  0  0  0  0
  7 20  1  0  0  0  0
  7 21  1  0  0  0  0
  8 22  1  0  0  0  0
  8 23  1  0  0  0  0
  9 11  2  0  0  0  0
  9 12  1  0  0  0  0
 10 11  1  0  0  0  0
 10 24  1  0  0  0  0
 10 25  1  0  0  0  0
 11 26  1  0  0  0  0
 12 27  1  0  0  0  0
 12 28  1  0  0  0  0
 13 14  1  0  0  0  0
 14 15  1  0  0  0  0
 14 16  2  0  0  0  0
 15 30  1  0  0  0  0
 15 31  1  0  0  0  0
 15 32  1  0  0  0  0
 16 17  1  0  0  0  0
 16 33  1  0  0  0  0
 17 34  1  0  0  0  0
 17 35  1  0  0  0  0
 17 36  1  0  0  0  0
M  END
> <PUBCHEM_COMPOUND_CID>
5281721

> <PUBCHEM_CONFORMER_RMSD>
0.6

> <PUBCHEM_CONFORMER_DIVERSEORDER>
1
54
63
50
33
38
65
58
34
67
49
15
32
61
48
7
62
69
66
18
42
46
39
22
21
53
44
59
56
23
29
9
64
36
47
37
55
43
41
13
28
31
51
6
11
52
14
20
27
68
35
5
60
16
4
24
26
25
10
8
57
17
40
12
45
30
2
19
3

> <PUBCHEM_MMFF94_PARTIAL_CHARGES>
19
1 -0.43
10 0.41
11 -0.29
12 0.42
13 0.71
14 -0.12
15 0.14
16 -0.29
17 0.14
2 -0.68
26 0.15
29 0.4
3 -0.57
33 0.15
4 -0.81
5 0.41
6 0.28
8 0.27
9 -0.28

> <PUBCHEM_EFFECTIVE_ROTOR_COUNT>
4.8

> <PUBCHEM_PHARMACOPHORE_FEATURES>
8
1 15 hydrophobe
1 17 hydrophobe
1 2 acceptor
1 2 donor
1 3 acceptor
1 4 cation
5 4 5 6 7 8 rings
5 4 5 9 10 11 rings

> <PUBCHEM_HEAVY_ATOM_COUNT>
17

> <PUBCHEM_ATOM_DEF_STEREO_COUNT>
2

> <PUBCHEM_ATOM_UDEF_STEREO_COUNT>
0

> <PUBCHEM_BOND_DEF_STEREO_COUNT>
1

> <PUBCHEM_BOND_UDEF_STEREO_COUNT>
0

> <PUBCHEM_ISOTOPIC_ATOM_COUNT>
0

> <PUBCHEM_COMPONENT_COUNT>
1

> <PUBCHEM_CACTVS_TAUTO_COUNT>
1

> <PUBCHEM_CONFORMER_ID>
005097B900000001

> <PUBCHEM_MMFF94_ENERGY>
33.1971

> <PUBCHEM_FEATURE_SELFOVERLAP>
40.96

> <PUBCHEM_SHAPE_FINGERPRINT>
10498660 4 18340775952239353652
10608611 8 18341896251355614358
10759866 29 18187369852623349772
11132069 177 18201717370652275939
12162725 195 18335420140911262056
12251169 10 18334005086916359874
12403260 363 18267010666087447399
13533116 47 17530677684800526651
13583140 156 17240484667640103713
14614273 12 18118398450164322957
14787075 74 17535480536289959483
15442244 35 18262513681258222074
15669948 3 18340484585821221190
16945 1 18336837372824049767
17492 89 18333167262992974282
17846911 113 18340481180159724457
18186145 218 17986962842542564238
19049666 15 17985551039700819998
192875 21 18265596732868142876
20510252 161 18341898454863838913
20715895 44 18044925776108994949
21249577 28 18263931101764793364
21486144 27 16343421803781342834
21524375 3 18271519801949008203
21652331 79 18335986475235836460
23114952 82 17773337663499069326
23402539 116 18270101466677875679
23557571 272 18200326509891504958
23559900 14 18270685260128962854
2748010 2 17979644433282276295
312423 11 18187378601160274538
474 4 17242178066176695988
5374978 207 18334857220806243291
537710 114 18337960090107560565
7097593 13 18115853123748598218
81228 2 18337124371070492665
9709674 26 18411704261725687094

> <PUBCHEM_SHAPE_MULTIPOLES>
327.26
7.16
2.61
1.02
3.31
1.2
0.06
0.61
0.78
-0.84
-0.17
0.81
-0.1
-0.65

> <PUBCHEM_SHAPE_SELFOVERLAP>
675.872

> <PUBCHEM_SHAPE_VOLUME>
190.4

> <PUBCHEM_COORDINATE_TYPE>
2
5
10

$$$$
