10168655
  -OEChem-02172602533D

 86 90  0     1  0  0  0  0  0999 V2000
    0.7617   -1.2598   -3.3065 Cl  0  0  0  0  0  0  0  0  0  0  0  0
    2.0507   -6.0329   -1.1405 Cl  0  0  0  0  0  0  0  0  0  0  0  0
   -4.6806    2.0020    0.5264 O   0  0  0  0  0  0  0  0  0  0  0  0
   -6.4799    0.3154    2.1709 O   0  5  0  0  0  0  0  0  0  0  0  0
    6.5209   -0.3492    2.1666 O   0  0  0  0  0  0  0  0  0  0  0  0
    0.6527   -1.7262    2.4283 O   0  0  0  0  0  0  0  0  0  0  0  0
    0.8609    2.1602    0.2780 N   0  0  0  0  0  0  0  0  0  0  0  0
   -3.0304    0.5481   -0.1554 N   0  0  0  0  0  0  0  0  0  0  0  0
   -5.3422   -0.0689   -0.3401 N   0  0  0  0  0  0  0  0  0  0  0  0
   -7.2510    0.3286    1.1551 N   0  3  0  0  0  0  0  0  0  0  0  0
    5.7530    0.6183    1.5089 N   0  0  0  0  0  0  0  0  0  0  0  0
    2.9488   -1.2423    2.1558 N   0  0  0  0  0  0  0  0  0  0  0  0
   -1.9845    1.4894    0.1582 C   0  0  0  0  0  0  0  0  0  0  0  0
   -1.0604    0.9355    1.2423 C   0  0  0  0  0  0  0  0  0  0  0  0
   -1.1774    1.8512   -1.0890 C   0  0  0  0  0  0  0  0  0  0  0  0
    0.1110    1.8818    1.5107 C   0  0  0  0  0  0  0  0  0  0  0  0
   -0.0030    2.7683   -0.7434 C   0  0  0  0  0  0  0  0  0  0  0  0
    2.0061    3.0255    0.5605 C   0  0  0  0  0  0  0  0  0  0  0  0
   -2.6025   -0.6685   -0.8359 C   0  0  0  0  0  0  0  0  0  0  0  0
   -3.6025   -1.7824   -0.6558 C   0  0  0  0  0  0  0  0  0  0  0  0
    3.1187    2.2247    1.2436 C   0  0  0  0  0  0  0  0  0  0  0  0
   -4.3806    0.9008    0.0520 C   0  0  0  0  0  0  0  0  0  0  0  0
   -4.9546   -1.2673   -1.0982 C   0  0  0  0  0  0  0  0  0  0  0  0
    3.6377    1.0632    0.3676 C   0  0  2  0  0  0  0  0  0  0  0  0
   -6.7552    0.1449   -0.1213 C   0  0  0  0  0  0  0  0  0  0  0  0
    4.5969    0.1472    1.1444 C   0  0  0  0  0  0  0  0  0  0  0  0
    4.2823    1.5239   -0.9274 C   0  0  0  0  0  0  0  0  0  0  0  0
    4.1517   -1.2860    1.3783 C   0  0  0  0  0  0  0  0  0  0  0  0
   -7.5980    0.1602   -1.2279 C   0  0  0  0  0  0  0  0  0  0  0  0
    5.0353    2.6978   -0.9525 C   0  0  0  0  0  0  0  0  0  0  0  0
    4.1214    0.7736   -2.0921 C   0  0  0  0  0  0  0  0  0  0  0  0
   -8.6073    0.5301    1.3240 C   0  0  0  0  0  0  0  0  0  0  0  0
   -8.9616    0.3637   -1.0464 C   0  0  0  0  0  0  0  0  0  0  0  0
    5.6274    3.1213   -2.1424 C   0  0  0  0  0  0  0  0  0  0  0  0
    4.7134    1.1971   -3.2820 C   0  0  0  0  0  0  0  0  0  0  0  0
   -9.4712    0.5498    0.2340 C   0  0  0  0  0  0  0  0  0  0  0  0
    5.4665    2.3709   -3.3071 C   0  0  0  0  0  0  0  0  0  0  0  0
    3.0397   -0.6033    3.4750 C   0  0  0  0  0  0  0  0  0  0  0  0
    1.6898   -1.7585    1.7670 C   0  0  0  0  0  0  0  0  0  0  0  0
    1.5962   -2.3864    0.4394 C   0  0  0  0  0  0  0  0  0  0  0  0
    7.7591    0.2420    2.5288 C   0  0  0  0  0  0  0  0  0  0  0  0
    1.8400   -3.7521    0.2953 C   0  0  0  0  0  0  0  0  0  0  0  0
    1.2623   -1.6160   -0.6744 C   0  0  0  0  0  0  0  0  0  0  0  0
    1.1724   -2.2114   -1.9326 C   0  0  0  0  0  0  0  0  0  0  0  0
    1.7502   -4.3475   -0.9629 C   0  0  0  0  0  0  0  0  0  0  0  0
    1.4164   -3.5771   -2.0770 C   0  0  0  0  0  0  0  0  0  0  0  0
   -2.4239    2.4163    0.5465 H   0  0  0  0  0  0  0  0  0  0  0  0
   -0.6586   -0.0429    0.9792 H   0  0  0  0  0  0  0  0  0  0  0  0
   -1.6282    0.7887    2.1698 H   0  0  0  0  0  0  0  0  0  0  0  0
   -1.8251    2.3445   -1.8242 H   0  0  0  0  0  0  0  0  0  0  0  0
   -0.7698    0.9620   -1.5822 H   0  0  0  0  0  0  0  0  0  0  0  0
   -0.2676    2.8114    1.9563 H   0  0  0  0  0  0  0  0  0  0  0  0
    0.7401    1.3983    2.2634 H   0  0  0  0  0  0  0  0  0  0  0  0
   -0.3806    3.7426   -0.4061 H   0  0  0  0  0  0  0  0  0  0  0  0
    0.5708    2.9412   -1.6622 H   0  0  0  0  0  0  0  0  0  0  0  0
    1.7168    3.8747    1.1932 H   0  0  0  0  0  0  0  0  0  0  0  0
    2.3956    3.4619   -0.3661 H   0  0  0  0  0  0  0  0  0  0  0  0
   -2.5058   -0.4352   -1.9030 H   0  0  0  0  0  0  0  0  0  0  0  0
   -1.6343   -1.0156   -0.4761 H   0  0  0  0  0  0  0  0  0  0  0  0
   -3.3130   -2.6587   -1.2451 H   0  0  0  0  0  0  0  0  0  0  0  0
   -3.6430   -2.0853    0.3977 H   0  0  0  0  0  0  0  0  0  0  0  0
    2.7648    1.8394    2.2022 H   0  0  0  0  0  0  0  0  0  0  0  0
    3.9276    2.9070    1.5284 H   0  0  0  0  0  0  0  0  0  0  0  0
   -5.7075   -2.0503   -0.9503 H   0  0  0  0  0  0  0  0  0  0  0  0
   -4.9360   -0.9982   -2.1611 H   0  0  0  0  0  0  0  0  0  0  0  0
    2.7774    0.4569    0.0951 H   0  0  0  0  0  0  0  0  0  0  0  0
    4.8804   -1.8845    1.9289 H   0  0  0  0  0  0  0  0  0  0  0  0
    4.0135   -1.7566    0.4029 H   0  0  0  0  0  0  0  0  0  0  0  0
   -7.2133    0.0255   -2.2347 H   0  0  0  0  0  0  0  0  0  0  0  0
    5.2074    3.2985   -0.0662 H   0  0  0  0  0  0  0  0  0  0  0  0
    3.5484   -0.1476   -2.0856 H   0  0  0  0  0  0  0  0  0  0  0  0
   -8.9256    0.6670    2.3472 H   0  0  0  0  0  0  0  0  0  0  0  0
   -9.6279    0.3795   -1.9039 H   0  0  0  0  0  0  0  0  0  0  0  0
    6.2187    4.0322   -2.1613 H   0  0  0  0  0  0  0  0  0  0  0  0
    4.5902    0.6113   -4.1881 H   0  0  0  0  0  0  0  0  0  0  0  0
  -10.5343    0.7098    0.3830 H   0  0  0  0  0  0  0  0  0  0  0  0
    5.9291    2.6995   -4.2332 H   0  0  0  0  0  0  0  0  0  0  0  0
    2.0482   -0.3571    3.8641 H   0  0  0  0  0  0  0  0  0  0  0  0
    3.5099   -1.3209    4.1549 H   0  0  0  0  0  0  0  0  0  0  0  0
    3.6472    0.3019    3.4563 H   0  0  0  0  0  0  0  0  0  0  0  0
    8.2968    0.5766    1.6361 H   0  0  0  0  0  0  0  0  0  0  0  0
    7.5943    1.0846    3.2075 H   0  0  0  0  0  0  0  0  0  0  0  0
    8.3647   -0.5093    3.0425 H   0  0  0  0  0  0  0  0  0  0  0  0
    2.1003   -4.3494    1.1664 H   0  0  0  0  0  0  0  0  0  0  0  0
    1.0448   -0.5601   -0.5675 H   0  0  0  0  0  0  0  0  0  0  0  0
    1.3464   -4.0413   -3.0583 H   0  0  0  0  0  0  0  0  0  0  0  0
  1 44  1  0  0  0  0
  2 45  1  0  0  0  0
  3 22  2  0  0  0  0
  4 10  1  0  0  0  0
  5 11  1  0  0  0  0
  5 41  1  0  0  0  0
  6 39  2  0  0  0  0
  7 16  1  0  0  0  0
  7 17  1  0  0  0  0
  7 18  1  0  0  0  0
  8 13  1  0  0  0  0
  8 19  1  0  0  0  0
  8 22  1  0  0  0  0
  9 22  1  0  0  0  0
  9 23  1  0  0  0  0
  9 25  1  0  0  0  0
 10 25  1  0  0  0  0
 10 32  2  0  0  0  0
 11 26  2  0  0  0  0
 12 28  1  0  0  0  0
 12 38  1  0  0  0  0
 12 39  1  0  0  0  0
 13 14  1  0  0  0  0
 13 15  1  0  0  0  0
 13 47  1  0  0  0  0
 14 16  1  0  0  0  0
 14 48  1  0  0  0  0
 14 49  1  0  0  0  0
 15 17  1  0  0  0  0
 15 50  1  0  0  0  0
 15 51  1  0  0  0  0
 16 52  1  0  0  0  0
 16 53  1  0  0  0  0
 17 54  1  0  0  0  0
 17 55  1  0  0  0  0
 18 21  1  0  0  0  0
 18 56  1  0  0  0  0
 18 57  1  0  0  0  0
 19 20  1  0  0  0  0
 19 58  1  0  0  0  0
 19 59  1  0  0  0  0
 20 23  1  0  0  0  0
 20 60  1  0  0  0  0
 20 61  1  0  0  0  0
 21 24  1  0  0  0  0
 21 62  1  0  0  0  0
 21 63  1  0  0  0  0
 23 64  1  0  0  0  0
 23 65  1  0  0  0  0
 24 26  1  0  0  0  0
 24 27  1  0  0  0  0
 24 66  1  0  0  0  0
 25 29  2  0  0  0  0
 26 28  1  0  0  0  0
 27 30  2  0  0  0  0
 27 31  1  0  0  0  0
 28 67  1  0  0  0  0
 28 68  1  0  0  0  0
 29 33  1  0  0  0  0
 29 69  1  0  0  0  0
 30 34  1  0  0  0  0
 30 70  1  0  0  0  0
 31 35  2  0  0  0  0
 31 71  1  0  0  0  0
 32 36  1  0  0  0  0
 32 72  1  0  0  0  0
 33 36  2  0  0  0  0
 33 73  1  0  0  0  0
 34 37  2  0  0  0  0
 34 74  1  0  0  0  0
 35 37  1  0  0  0  0
 35 75  1  0  0  0  0
 36 76  1  0  0  0  0
 37 77  1  0  0  0  0
 38 78  1  0  0  0  0
 38 79  1  0  0  0  0
 38 80  1  0  0  0  0
 39 40  1  0  0  0  0
 40 42  2  0  0  0  0
 40 43  1  0  0  0  0
 41 81  1  0  0  0  0
 41 82  1  0  0  0  0
 41 83  1  0  0  0  0
 42 45  1  0  0  0  0
 42 84  1  0  0  0  0
 43 44  2  0  0  0  0
 43 85  1  0  0  0  0
 44 46  1  0  0  0  0
 45 46  2  0  0  0  0
 46 86  1  0  0  0  0
M  CHG  2   4  -1  10   1
M  END
> <PUBCHEM_COMPOUND_CID>
10168655

> <PUBCHEM_CONFORMER_RMSD>
1.8

> <PUBCHEM_CONFORMER_DIVERSEORDER>
1
31
109
134
19
159
150
7
144
191
63
173
72
57
110
78
37
128
152
153
126
195
83
149
132
140
100
16
77
190
111
45
146
91
64
185
108
137
25
82
29
117
141
70
142
182
167
103
42
28
162
68
157
121
94
67
44
47
143
177
172
81
106
53
145
69
85
107
116
160
88
136
48
8
183
20
193
178
163
27
39
95
10
125
86
66
79
165
115
181
18
101
118
52
84
129
56
5
73
112
14
9
43
2
74
54
166
196
65
58
87
89
124
80
38
197
155
104
71
164
148
188
127
23
21
192
92
194
36
119
130
61
26
180
184
17
75
133
93
55
174
97
169
138
135
105
35
120
11
15
122
50
113
151
147
40
168
179
154
4
62
32
6
171
33
131
98
161
12
186
34
30
90
59
46
123
176
158
139
24
187
3
60
41
114
13
96
102
175
99
156
51
49
76
189
170
22

> <PUBCHEM_MMFF94_PARTIAL_CHARGES>
54
1 -0.18
10 0.57
11 -0.51
12 -0.66
13 0.3
16 0.27
17 0.27
18 0.27
19 0.3
2 -0.18
22 0.69
23 0.3
24 0.2
25 0.21
26 0.33
27 -0.14
28 0.36
29 -0.15
3 -0.57
30 -0.15
31 -0.15
32 -0.06
33 -0.15
34 -0.15
35 -0.15
36 -0.15
37 -0.15
38 0.3
39 0.54
4 -0.75
40 0.09
41 0.28
42 -0.15
43 -0.15
44 0.18
45 0.18
46 -0.15
5 -0.22
6 -0.57
69 0.15
7 -0.81
70 0.15
71 0.15
72 0.15
73 0.15
74 0.15
75 0.15
76 0.15
77 0.15
8 -0.66
84 0.15
85 0.15
86 0.15
9 -0.48

> <PUBCHEM_EFFECTIVE_ROTOR_COUNT>
14.2

> <PUBCHEM_PHARMACOPHORE_FEATURES>
10
1 11 acceptor
1 3 acceptor
1 4 anion
1 6 acceptor
1 7 cation
6 10 25 29 32 33 36 rings
6 27 30 31 34 35 37 rings
6 40 42 43 44 45 46 rings
6 7 13 14 15 16 17 rings
6 8 9 19 20 22 23 rings

> <PUBCHEM_HEAVY_ATOM_COUNT>
46

> <PUBCHEM_ATOM_DEF_STEREO_COUNT>
0

> <PUBCHEM_ATOM_UDEF_STEREO_COUNT>
1

> <PUBCHEM_BOND_DEF_STEREO_COUNT>
1

> <PUBCHEM_BOND_UDEF_STEREO_COUNT>
0

> <PUBCHEM_ISOTOPIC_ATOM_COUNT>
0

> <PUBCHEM_COMPONENT_COUNT>
1

> <PUBCHEM_CACTVS_TAUTO_COUNT>
1

> <PUBCHEM_CONFORMER_ID>
009B294F00000001

> <PUBCHEM_MMFF94_ENERGY>
132.3477

> <PUBCHEM_FEATURE_SELFOVERLAP>
50.748

> <PUBCHEM_SHAPE_FINGERPRINT>
10079526 1005 18115884051728812844
11181472 205 18338524024521674321
12120059 20 18341055228968619431
13150687 139 18115889515570941460
13751561 76 18262244330901134691
14118638 360 18202007582610870865
14747281 78 17968390030003404157
14918310 93 18040441009432942812
15001296 14 18130502054535819529
15145344 5 17417540095499993945
15183329 4 18272655675540220933
15264996 154 18269563728009195014
15264996 19 17900836147214206070
15297060 5 18131057256463250090
15444296 7 18260257578456901512
15484559 13 18343024410726783662
15840311 113 15213300850462254029
19319366 153 17822562924193018104
21792938 131 17703242715081070836
22956985 138 18051695439241799142
394071 54 18412544298000413883
4093350 32 16588022433282934493
4112364 45 17675922122889247238
513532 50 16487253270633704463
57359948 33 17894910686327173877
57527452 28 18409721843188559760

> <PUBCHEM_SHAPE_MULTIPOLES>
897.03
21.15
4.79
3.17
51.01
7.09
-0.4
-10.66
2.85
-6.95
-2.4
-6.08
-0.09
-2.67

> <PUBCHEM_SHAPE_SELFOVERLAP>
1883.727

> <PUBCHEM_SHAPE_VOLUME>
505.2

> <PUBCHEM_COORDINATE_TYPE>
2
5
10

$$$$
