5363222
  -OEChem-02172602323D

 51 50  0     1  0  0  0  0  0999 V2000
    6.1281   -0.1806    0.2890 O   0  0  0  0  0  0  0  0  0  0  0  0
    6.9735   -2.0854   -0.7080 O   0  0  0  0  0  0  0  0  0  0  0  0
   -1.0121    2.1125    0.6662 C   0  0  0  0  0  0  0  0  0  0  0  0
   -0.0530    0.9943    0.2375 C   0  0  0  0  0  0  0  0  0  0  0  0
   -2.4755    1.8349    0.2669 C   0  0  2  0  0  0  0  0  0  0  0  0
    1.4083    1.2705    0.6092 C   0  0  0  0  0  0  0  0  0  0  0  0
    2.3664    0.1626    0.1641 C   0  0  0  0  0  0  0  0  0  0  0  0
   -2.6238    1.6682   -1.2258 C   0  0  0  0  0  0  0  0  0  0  0  0
    3.8324    0.4711    0.4737 C   0  0  0  0  0  0  0  0  0  0  0  0
   -3.3769    2.9771    0.7428 C   0  0  0  0  0  0  0  0  0  0  0  0
   -3.5249   -0.6660   -1.0469 C   0  0  0  0  0  0  0  0  0  0  0  0
   -5.0236   -0.6171   -0.7397 C   0  0  0  0  0  0  0  0  0  0  0  0
   -3.0913    0.5536   -1.8078 C   0  0  0  0  0  0  0  0  0  0  0  0
   -5.5108   -1.8036    0.0976 C   0  0  0  0  0  0  0  0  0  0  0  0
    4.8042   -0.5832   -0.0389 C   0  0  0  0  0  0  0  0  0  0  0  0
   -6.9921   -1.7186    0.4676 C   0  0  0  0  0  0  0  0  0  0  0  0
   -7.4085   -2.8803    1.3571 C   0  0  0  0  0  0  0  0  0  0  0  0
    7.1236   -1.0300   -0.1073 C   0  0  0  0  0  0  0  0  0  0  0  0
    8.4560   -0.4800    0.3029 C   0  0  0  0  0  0  0  0  0  0  0  0
   -0.9507    2.2381    1.7547 H   0  0  0  0  0  0  0  0  0  0  0  0
   -0.6790    3.0599    0.2222 H   0  0  0  0  0  0  0  0  0  0  0  0
   -0.1043    0.8499   -0.8478 H   0  0  0  0  0  0  0  0  0  0  0  0
   -0.3696    0.0511    0.6997 H   0  0  0  0  0  0  0  0  0  0  0  0
   -2.7968    0.9478    0.8189 H   0  0  0  0  0  0  0  0  0  0  0  0
    1.7185    2.2189    0.1532 H   0  0  0  0  0  0  0  0  0  0  0  0
    1.4870    1.4006    1.6955 H   0  0  0  0  0  0  0  0  0  0  0  0
    2.0837   -0.7791    0.6501 H   0  0  0  0  0  0  0  0  0  0  0  0
    2.2553    0.0075   -0.9162 H   0  0  0  0  0  0  0  0  0  0  0  0
   -2.3391    2.5054   -1.8587 H   0  0  0  0  0  0  0  0  0  0  0  0
    4.1042    1.4423    0.0403 H   0  0  0  0  0  0  0  0  0  0  0  0
    3.9649    0.5874    1.5569 H   0  0  0  0  0  0  0  0  0  0  0  0
   -3.0993    3.9300    0.2780 H   0  0  0  0  0  0  0  0  0  0  0  0
   -4.4266    2.7769    0.5004 H   0  0  0  0  0  0  0  0  0  0  0  0
   -3.3047    3.1008    1.8288 H   0  0  0  0  0  0  0  0  0  0  0  0
   -3.3171   -1.5428   -1.6738 H   0  0  0  0  0  0  0  0  0  0  0  0
   -2.9387   -0.8290   -0.1378 H   0  0  0  0  0  0  0  0  0  0  0  0
   -5.5913   -0.5830   -1.6785 H   0  0  0  0  0  0  0  0  0  0  0  0
   -5.2569    0.3092   -0.1993 H   0  0  0  0  0  0  0  0  0  0  0  0
   -3.1804    0.5255   -2.8905 H   0  0  0  0  0  0  0  0  0  0  0  0
   -5.3251   -2.7336   -0.4538 H   0  0  0  0  0  0  0  0  0  0  0  0
   -4.9142   -1.8567    1.0171 H   0  0  0  0  0  0  0  0  0  0  0  0
    4.5875   -1.5503    0.4296 H   0  0  0  0  0  0  0  0  0  0  0  0
    4.7106   -0.6812   -1.1267 H   0  0  0  0  0  0  0  0  0  0  0  0
   -7.1907   -0.7765    0.9915 H   0  0  0  0  0  0  0  0  0  0  0  0
   -7.6021   -1.7193   -0.4429 H   0  0  0  0  0  0  0  0  0  0  0  0
   -8.4710   -2.8030    1.6080 H   0  0  0  0  0  0  0  0  0  0  0  0
   -6.8383   -2.8836    2.2915 H   0  0  0  0  0  0  0  0  0  0  0  0
   -7.2473   -3.8381    0.8521 H   0  0  0  0  0  0  0  0  0  0  0  0
    9.2457   -1.1659   -0.0170 H   0  0  0  0  0  0  0  0  0  0  0  0
    8.4981   -0.3837    1.3907 H   0  0  0  0  0  0  0  0  0  0  0  0
    8.6205    0.4883   -0.1763 H   0  0  0  0  0  0  0  0  0  0  0  0
  1 15  1  0  0  0  0
  1 18  1  0  0  0  0
  2 18  2  0  0  0  0
  3  4  1  0  0  0  0
  3  5  1  0  0  0  0
  3 20  1  0  0  0  0
  3 21  1  0  0  0  0
  4  6  1  0  0  0  0
  4 22  1  0  0  0  0
  4 23  1  0  0  0  0
  5  8  1  0  0  0  0
  5 10  1  0  0  0  0
  5 24  1  0  0  0  0
  6  7  1  0  0  0  0
  6 25  1  0  0  0  0
  6 26  1  0  0  0  0
  7  9  1  0  0  0  0
  7 27  1  0  0  0  0
  7 28  1  0  0  0  0
  8 13  2  0  0  0  0
  8 29  1  0  0  0  0
  9 15  1  0  0  0  0
  9 30  1  0  0  0  0
  9 31  1  0  0  0  0
 10 32  1  0  0  0  0
 10 33  1  0  0  0  0
 10 34  1  0  0  0  0
 11 12  1  0  0  0  0
 11 13  1  0  0  0  0
 11 35  1  0  0  0  0
 11 36  1  0  0  0  0
 12 14  1  0  0  0  0
 12 37  1  0  0  0  0
 12 38  1  0  0  0  0
 13 39  1  0  0  0  0
 14 16  1  0  0  0  0
 14 40  1  0  0  0  0
 14 41  1  0  0  0  0
 15 42  1  0  0  0  0
 15 43  1  0  0  0  0
 16 17  1  0  0  0  0
 16 44  1  0  0  0  0
 16 45  1  0  0  0  0
 17 46  1  0  0  0  0
 17 47  1  0  0  0  0
 17 48  1  0  0  0  0
 18 19  1  0  0  0  0
 19 49  1  0  0  0  0
 19 50  1  0  0  0  0
 19 51  1  0  0  0  0
M  END
> <PUBCHEM_COMPOUND_CID>
5363222

> <PUBCHEM_CONFORMER_RMSD>
1.4

> <PUBCHEM_CONFORMER_DIVERSEORDER>
1
59
31
63
70
2
34
22
5
51
77
16
36
44
10
85
53
24
90
82
65
73
79
76
8
39
46
30
74
86
62
56
47
15
23
14
88
50
83
67
12
48
28
61
25
89
64
32
13
57
33
68
29
11
37
93
42
3
21
19
45
43
75
60
20
55
49
40
66
4
26
72
41
54
81
78
80
69
91
17
35
92
84
27
18
6
9
58
7
38
87
71
52

> <PUBCHEM_MMFF94_PARTIAL_CHARGES>
11
1 -0.43
11 0.14
13 -0.29
15 0.28
18 0.66
19 0.06
2 -0.57
29 0.15
39 0.15
5 0.14
8 -0.29

> <PUBCHEM_EFFECTIVE_ROTOR_COUNT>
13

> <PUBCHEM_PHARMACOPHORE_FEATURES>
4
1 10 hydrophobe
1 17 hydrophobe
1 2 acceptor
5 11 12 13 14 16 hydrophobe

> <PUBCHEM_HEAVY_ATOM_COUNT>
19

> <PUBCHEM_ATOM_DEF_STEREO_COUNT>
0

> <PUBCHEM_ATOM_UDEF_STEREO_COUNT>
1

> <PUBCHEM_BOND_DEF_STEREO_COUNT>
1

> <PUBCHEM_BOND_UDEF_STEREO_COUNT>
0

> <PUBCHEM_ISOTOPIC_ATOM_COUNT>
0

> <PUBCHEM_COMPONENT_COUNT>
1

> <PUBCHEM_CACTVS_TAUTO_COUNT>
1

> <PUBCHEM_CONFORMER_ID>
0051D61600000001

> <PUBCHEM_MMFF94_ENERGY>
8.4084

> <PUBCHEM_FEATURE_SELFOVERLAP>
20.297

> <PUBCHEM_SHAPE_FINGERPRINT>
11756154 5 18336823199179200995
12760667 363 18342733049125364351
13668630 136 18334574629665705630
13673619 4 18408882975487373685
13941219 33 15769780138813744772
14123256 34 18261955245352560027
14251764 30 18261391221926431075
17780758 139 16343699932894049489
18335252 98 18344145900414155018
18643901 69 18040715875272213287
195137 95 11815630657221134179
20621476 21 18334857268531288675
21095086 4 17969793076071854115
21150785 3 17313103056021736558
21267235 1 18411138056091343208
21344244 246 17677620933143181220
21403212 168 16559037086977825855
22288116 15 15791453742581225331
23424782 7 18409728491697888576
23424784 1240 17775012220141234710
393628 194 8718556047035656135
4107672 100 17313090936019627975
5104073 3 17774995774510770888
5283384 27 10591775264144978931
58260988 114 18410865348018889401
636775 8 18408891745863586686
999808 66 18343301470255502815

> <PUBCHEM_SHAPE_MULTIPOLES>
379.27
24.23
2.92
1.19
33.3
0.32
-0.31
-24.26
2.84
-5.53
0.92
-1.71
0.04
2.03

> <PUBCHEM_SHAPE_SELFOVERLAP>
699.251

> <PUBCHEM_SHAPE_VOLUME>
239.6

> <PUBCHEM_COORDINATE_TYPE>
2
5
10

$$$$
