10091398
  -OEChem-02172602513D

 24 25  0     0  0  0  0  0  0999 V2000
    5.0308    0.9454    1.0840 Br  0  0  0  0  0  0  0  0  0  0  0  0
   -1.5655   -2.3123    0.4609 S   0  0  0  0  0  0  0  0  0  0  0  0
    0.2641   -0.8470   -0.4315 N   0  3  0  0  0  0  0  0  0  0  0  0
    1.5471   -0.4287   -0.9444 C   0  0  0  0  0  0  0  0  0  0  0  0
   -0.7942    0.0102   -0.2309 C   0  0  0  0  0  0  0  0  0  0  0  0
    2.5151   -0.0148    0.1617 C   0  0  0  0  0  0  0  0  0  0  0  0
   -1.9194   -0.6326    0.2701 C   0  0  0  0  0  0  0  0  0  0  0  0
    0.0290   -2.1027   -0.1190 C   0  0  0  0  0  0  0  0  0  0  0  0
   -0.8047    1.3895   -0.4828 C   0  0  0  0  0  0  0  0  0  0  0  0
    3.8831    0.3662   -0.3796 C   0  0  0  0  0  0  0  0  0  0  0  0
   -3.0990    0.0753    0.5396 C   0  0  0  0  0  0  0  0  0  0  0  0
   -1.9793    2.0996   -0.2154 C   0  0  0  0  0  0  0  0  0  0  0  0
   -3.1072    1.4519    0.2875 C   0  0  0  0  0  0  0  0  0  0  0  0
    1.4212    0.3788   -1.6741 H   0  0  0  0  0  0  0  0  0  0  0  0
    1.9830   -1.2620   -1.5128 H   0  0  0  0  0  0  0  0  0  0  0  0
    2.0847    0.8253    0.7211 H   0  0  0  0  0  0  0  0  0  0  0  0
    2.6162   -0.8360    0.8828 H   0  0  0  0  0  0  0  0  0  0  0  0
    0.7523   -2.9010   -0.2144 H   0  0  0  0  0  0  0  0  0  0  0  0
    0.0589    1.9225   -0.8664 H   0  0  0  0  0  0  0  0  0  0  0  0
    3.8263    1.2033   -1.0806 H   0  0  0  0  0  0  0  0  0  0  0  0
    4.3842   -0.4797   -0.8581 H   0  0  0  0  0  0  0  0  0  0  0  0
   -3.9810   -0.4213    0.9311 H   0  0  0  0  0  0  0  0  0  0  0  0
   -2.0120    3.1701   -0.4005 H   0  0  0  0  0  0  0  0  0  0  0  0
   -4.0090    2.0250    0.4881 H   0  0  0  0  0  0  0  0  0  0  0  0
  1 10  1  0  0  0  0
  2  7  1  0  0  0  0
  2  8  1  0  0  0  0
  3  4  1  0  0  0  0
  3  5  1  0  0  0  0
  3  8  2  0  0  0  0
  4  6  1  0  0  0  0
  4 14  1  0  0  0  0
  4 15  1  0  0  0  0
  5  7  1  0  0  0  0
  5  9  2  0  0  0  0
  6 10  1  0  0  0  0
  6 16  1  0  0  0  0
  6 17  1  0  0  0  0
  7 11  2  0  0  0  0
  8 18  1  0  0  0  0
  9 12  1  0  0  0  0
  9 19  1  0  0  0  0
 10 20  1  0  0  0  0
 10 21  1  0  0  0  0
 11 13  1  0  0  0  0
 11 22  1  0  0  0  0
 12 13  2  0  0  0  0
 12 23  1  0  0  0  0
 13 24  1  0  0  0  0
M  CHG  1   3   1
M  END
> <PUBCHEM_COMPOUND_CID>
10091398

> <PUBCHEM_CONFORMER_RMSD>
0.6

> <PUBCHEM_CONFORMER_DIVERSEORDER>
1
11
10
7
4
12
3
6
9
8
2
5

> <PUBCHEM_MMFF94_PARTIAL_CHARGES>
17
1 -0.23
10 0.23
11 -0.15
12 -0.15
13 -0.15
18 0.15
19 0.15
2 -0.08
22 0.15
23 0.15
24 0.15
3 -0.18
4 0.51
5 0.33
7 0.04
8 0.22
9 -0.15

> <PUBCHEM_EFFECTIVE_ROTOR_COUNT>
3

> <PUBCHEM_PHARMACOPHORE_FEATURES>
3
1 1 hydrophobe
5 2 3 5 7 8 rings
6 5 7 9 11 12 13 rings

> <PUBCHEM_HEAVY_ATOM_COUNT>
13

> <PUBCHEM_ATOM_DEF_STEREO_COUNT>
0

> <PUBCHEM_ATOM_UDEF_STEREO_COUNT>
0

> <PUBCHEM_BOND_DEF_STEREO_COUNT>
0

> <PUBCHEM_BOND_UDEF_STEREO_COUNT>
0

> <PUBCHEM_ISOTOPIC_ATOM_COUNT>
0

> <PUBCHEM_COMPONENT_COUNT>
1

> <PUBCHEM_CACTVS_TAUTO_COUNT>
1

> <PUBCHEM_CONFORMER_ID>
0099FB8600000001

> <PUBCHEM_MMFF94_ENERGY>
20.3188

> <PUBCHEM_FEATURE_SELFOVERLAP>
15.293

> <PUBCHEM_SHAPE_FINGERPRINT>
10608611 8 18342741801931161756
11132069 177 18410016537109327284
122479 349 18272368681166161168
12251169 10 18260267464722718948
13024252 1 13767921330219730823
13214271 11 18271805765245235988
13296909 8 18336543919056774886
13380535 76 18410295765939630407
13897977 58 18261960764422523628
14420673 8 18118114772381748922
15219456 202 18201446835321284886
15775835 57 18336267860038982328
16945 1 18262820509310868959
17846911 113 18410575067504555589
18186145 218 18059306348659099420
193761 8 17761226800949261759
20510252 161 18341900662287241961
20645477 56 18413389852253743312
20871998 184 18269567172546163447
20871999 31 9871756797197793042
21524375 3 18340765931843223038
21650355 55 18119245305666266202
23402539 116 18341043138076408183
23419403 2 17615098402429408767
23500284 214 18273497866580521760
23557571 272 18199488703859501526
23559900 14 18341344305947240966
27216 239 18130497656383540848
2748010 2 17973744488537447575
305870 269 18116996580890759747
5706482 22 18335977605933068011
58807428 26 18260835838903415427
6333449 129 18411703188183595591
7097593 13 18041547071581708922
7364860 26 17835243346334598343
90316 7 17821722828110353380

> <PUBCHEM_SHAPE_MULTIPOLES>
272.34
7.24
2.26
0.91
11.2
0.5
-0.06
-3.28
-2.45
-1.9
-0.1
0.51
-0.03
0.54

> <PUBCHEM_SHAPE_SELFOVERLAP>
546.165

> <PUBCHEM_SHAPE_VOLUME>
165.3

> <PUBCHEM_COORDINATE_TYPE>
2
5
10

$$$$
