129315877
  -OEChem-02172602513D

 51 55  0     0  0  0  0  0  0999 V2000
   -6.9528   -1.3672    2.3351 Cl  0  0  0  0  0  0  0  0  0  0  0  0
   -6.2262    0.9178    0.3349 O   0  0  0  0  0  0  0  0  0  0  0  0
    4.5853    0.2185   -0.0950 N   0  0  0  0  0  0  0  0  0  0  0  0
    2.8302   -0.9836    0.5425 N   0  0  0  0  0  0  0  0  0  0  0  0
    3.0565    2.4248   -0.6031 N   0  0  0  0  0  0  0  0  0  0  0  0
   -4.0470    0.1620   -0.1253 N   0  0  0  0  0  0  0  0  0  0  0  0
   -3.1523    3.6733    0.5104 N   0  0  0  0  0  0  0  0  0  0  0  0
    0.2867    2.4319   -0.2261 C   0  0  0  0  0  0  0  0  0  0  0  0
    3.2331    0.1884    0.1043 C   0  0  0  0  0  0  0  0  0  0  0  0
    2.3953    1.3340   -0.1552 C   0  0  0  0  0  0  0  0  0  0  0  0
    5.0758   -1.0129    0.2372 C   0  0  0  0  0  0  0  0  0  0  0  0
   -1.1465    2.4365   -0.0298 C   0  0  0  0  0  0  0  0  0  0  0  0
    1.0255    1.2863    0.0478 C   0  0  0  0  0  0  0  0  0  0  0  0
    6.4733   -1.3609    0.1546 C   0  0  0  0  0  0  0  0  0  0  0  0
   -1.8946    1.2739   -0.1786 C   0  0  0  0  0  0  0  0  0  0  0  0
    0.9312    3.5741   -0.6883 C   0  0  0  0  0  0  0  0  0  0  0  0
    3.9742   -1.7372    0.6274 C   0  0  0  0  0  0  0  0  0  0  0  0
   -3.2708    1.3097    0.0167 C   0  0  0  0  0  0  0  0  0  0  0  0
   -1.8169    3.5998    0.3125 C   0  0  0  0  0  0  0  0  0  0  0  0
    2.3051    3.5194   -0.8586 C   0  0  0  0  0  0  0  0  0  0  0  0
    6.8497   -2.6776   -0.1102 C   0  0  0  0  0  0  0  0  0  0  0  0
    7.4481   -0.3806    0.3396 C   0  0  0  0  0  0  0  0  0  0  0  0
   -3.8463    2.5233    0.3568 C   0  0  0  0  0  0  0  0  0  0  0  0
    8.2012   -3.0142   -0.1900 C   0  0  0  0  0  0  0  0  0  0  0  0
    8.7994   -0.7169    0.2597 C   0  0  0  0  0  0  0  0  0  0  0  0
   -5.4344    0.0305    0.0354 C   0  0  0  0  0  0  0  0  0  0  0  0
   -5.9805   -1.3295   -0.2137 C   0  0  0  0  0  0  0  0  0  0  0  0
    9.1759   -2.0338   -0.0050 C   0  0  0  0  0  0  0  0  0  0  0  0
   -6.6795   -2.0346    0.7658 C   0  0  0  0  0  0  0  0  0  0  0  0
   -5.7774   -1.8979   -1.4711 C   0  0  0  0  0  0  0  0  0  0  0  0
   -7.1754   -3.3083    0.4880 C   0  0  0  0  0  0  0  0  0  0  0  0
   -6.2734   -3.1718   -1.7491 C   0  0  0  0  0  0  0  0  0  0  0  0
   -6.9724   -3.8770   -0.7696 C   0  0  0  0  0  0  0  0  0  0  0  0
    0.5671    0.3822    0.4361 H   0  0  0  0  0  0  0  0  0  0  0  0
    5.1168    1.0083   -0.4379 H   0  0  0  0  0  0  0  0  0  0  0  0
   -1.4371    0.3324   -0.4726 H   0  0  0  0  0  0  0  0  0  0  0  0
    0.4113    4.4910   -0.9439 H   0  0  0  0  0  0  0  0  0  0  0  0
    3.9367   -2.7619    0.9697 H   0  0  0  0  0  0  0  0  0  0  0  0
   -1.3110    4.5463    0.4753 H   0  0  0  0  0  0  0  0  0  0  0  0
    2.8549    4.3811   -1.2227 H   0  0  0  0  0  0  0  0  0  0  0  0
    6.1098   -3.4592   -0.2640 H   0  0  0  0  0  0  0  0  0  0  0  0
    7.1873    0.6519    0.5582 H   0  0  0  0  0  0  0  0  0  0  0  0
   -3.5324   -0.6802   -0.3746 H   0  0  0  0  0  0  0  0  0  0  0  0
   -4.9021    2.6708    0.5326 H   0  0  0  0  0  0  0  0  0  0  0  0
    8.4945   -4.0391   -0.3974 H   0  0  0  0  0  0  0  0  0  0  0  0
    9.5589    0.0456    0.4061 H   0  0  0  0  0  0  0  0  0  0  0  0
   10.2281   -2.2957   -0.0669 H   0  0  0  0  0  0  0  0  0  0  0  0
   -5.2404   -1.3601   -2.2484 H   0  0  0  0  0  0  0  0  0  0  0  0
   -7.7223   -3.8712    1.2402 H   0  0  0  0  0  0  0  0  0  0  0  0
   -6.1165   -3.6139   -2.7286 H   0  0  0  0  0  0  0  0  0  0  0  0
   -7.3588   -4.8687   -0.9861 H   0  0  0  0  0  0  0  0  0  0  0  0
  1 29  1  0  0  0  0
  2 26  2  0  0  0  0
  3  9  1  0  0  0  0
  3 11  1  0  0  0  0
  3 35  1  0  0  0  0
  4  9  2  0  0  0  0
  4 17  1  0  0  0  0
  5 10  2  0  0  0  0
  5 20  1  0  0  0  0
  6 18  1  0  0  0  0
  6 26  1  0  0  0  0
  6 43  1  0  0  0  0
  7 19  2  0  0  0  0
  7 23  1  0  0  0  0
  8 12  1  0  0  0  0
  8 13  2  0  0  0  0
  8 16  1  0  0  0  0
  9 10  1  0  0  0  0
 10 13  1  0  0  0  0
 11 14  1  0  0  0  0
 11 17  2  0  0  0  0
 12 15  2  0  0  0  0
 12 19  1  0  0  0  0
 13 34  1  0  0  0  0
 14 21  2  0  0  0  0
 14 22  1  0  0  0  0
 15 18  1  0  0  0  0
 15 36  1  0  0  0  0
 16 20  2  0  0  0  0
 16 37  1  0  0  0  0
 17 38  1  0  0  0  0
 18 23  2  0  0  0  0
 19 39  1  0  0  0  0
 20 40  1  0  0  0  0
 21 24  1  0  0  0  0
 21 41  1  0  0  0  0
 22 25  2  0  0  0  0
 22 42  1  0  0  0  0
 23 44  1  0  0  0  0
 24 28  2  0  0  0  0
 24 45  1  0  0  0  0
 25 28  1  0  0  0  0
 25 46  1  0  0  0  0
 26 27  1  0  0  0  0
 27 29  1  0  0  0  0
 27 30  2  0  0  0  0
 28 47  1  0  0  0  0
 29 31  2  0  0  0  0
 30 32  1  0  0  0  0
 30 48  1  0  0  0  0
 31 33  1  0  0  0  0
 31 49  1  0  0  0  0
 32 33  2  0  0  0  0
 32 50  1  0  0  0  0
 33 51  1  0  0  0  0
M  END
> <PUBCHEM_COMPOUND_CID>
129315877

> <PUBCHEM_CONFORMER_RMSD>
0.8

> <PUBCHEM_CONFORMER_DIVERSEORDER>
1
130
193
194
20
104
161
80
126
136
203
69
160
41
134
74
204
87
75
100
164
54
66
18
13
163
200
174
2
125
199
120
56
48
105
32
166
23
201
191
175
27
172
62
139
88
15
190
46
106
206
179
22
10
183
59
184
35
4
122
73
63
78
102
117
173
144
47
149
61
92
70
147
84
101
81
155
58
168
7
135
188
108
26
45
83
145
8
42
11
177
189
176
167
116
94
156
141
77
148
182
50
9
158
40
98
185
152
3
131
114
60
25
103
91
123
198
146
16
38
159
157
49
86
14
68
140
118
128
6
169
21
121
115
5
196
192
29
39
132
95
65
113
154
197
142
51
64
82
53
19
72
71
57
195
97
133
107
67
43
153
24
52
171
150
28
96
170
93
76
112
165
124
138
186
178
12
30
79
127
143
44
187
90
111
89
151
181
33
110
34
85
109
17
36
99
162
55
180
137
202
119
31
37
205
207
129

> <PUBCHEM_MMFF94_PARTIAL_CHARGES>
49
1 -0.18
10 0.36
11 -0.2
13 -0.15
14 0.05
15 -0.15
16 -0.15
17 0.08
18 0.12
19 0.16
2 -0.57
20 0.16
21 -0.15
22 -0.15
23 0.16
24 -0.15
25 -0.15
26 0.54
27 0.09
28 -0.15
29 0.18
3 0.03
30 -0.15
31 -0.15
32 -0.15
33 -0.15
34 0.15
35 0.27
36 0.15
37 0.15
38 0.15
39 0.15
4 -0.57
40 0.15
41 0.15
42 0.15
43 0.37
44 0.15
45 0.15
46 0.15
47 0.15
48 0.15
49 0.15
5 -0.62
50 0.15
51 0.15
6 -0.55
7 -0.62
9 0.13

> <PUBCHEM_EFFECTIVE_ROTOR_COUNT>
6

> <PUBCHEM_PHARMACOPHORE_FEATURES>
11
1 2 acceptor
1 3 donor
1 5 acceptor
1 6 donor
1 7 acceptor
3 3 4 9 cation
5 3 4 9 11 17 rings
6 14 21 22 24 25 28 rings
6 27 29 30 31 32 33 rings
6 5 8 10 13 16 20 rings
6 7 12 15 18 19 23 rings

> <PUBCHEM_HEAVY_ATOM_COUNT>
33

> <PUBCHEM_ATOM_DEF_STEREO_COUNT>
0

> <PUBCHEM_ATOM_UDEF_STEREO_COUNT>
0

> <PUBCHEM_BOND_DEF_STEREO_COUNT>
0

> <PUBCHEM_BOND_UDEF_STEREO_COUNT>
0

> <PUBCHEM_ISOTOPIC_ATOM_COUNT>
0

> <PUBCHEM_COMPONENT_COUNT>
1

> <PUBCHEM_CACTVS_TAUTO_COUNT>
36

> <PUBCHEM_CONFORMER_ID>
07B5342500000001

> <PUBCHEM_MMFF94_ENERGY>
100.4009

> <PUBCHEM_FEATURE_SELFOVERLAP>
55.823

> <PUBCHEM_SHAPE_FINGERPRINT>
10100884 174 18408038529093721770
10258705 36 17914343381975946198
10391435 84 18339066116942216312
10622 236 18409442605520739461
11135609 99 18411139121729172773
11475781 23 10809628070055932274
11497681 19 18407759248908096092
117089 54 18336830896277657539
11756154 67 18408323289244906382
11761917 116 18410858763712887214
12013929 27 18042403711415129479
12522641 126 18114190782875307076
12559416 138 18341879784636703407
12841400 136 18262238923473790579
12925494 130 8323359088825671443
13248334 5 18049723219850149236
13540713 5 18337410295645034197
1361 4 18121500426106953543
14040222 275 18265916772440893054
14068700 675 18411982463858008617
14178184 131 18131062762305732255
14344974 204 18343865502535986614
14671636 106 18412544315222552302
15347591 1 18410012156528652365
15448158 91 18408610261689779496
15467298 65 17973434413042230482
15510800 12 18040722505878695177
15803439 3 14634868660703781265
16067689 68 17917725565093041955
16991971 28 18408324385141847358
16992779 147 16341991391315759672
17492 89 18410011065669833829
18608769 82 18342455894437555250
19246450 95 18128836174983400057
19301676 85 18191865837411835603
19303781 99 18334292106564208295
19319366 153 17691126354758087837
19841028 212 18335134353993121419
20028762 73 18413106177652975278
208703 8 18410847789601823839
20982279 24 17677904625262370923
21344244 246 18114188583757079796
23569943 247 18340209704579841427
23729417 116 18261394387091352676
24983565 74 17908695482612178847
25025965 108 18129929161918478519
25269216 80 14057003875982392739
2747138 104 18342449323470123048
3383291 50 18260831513856089658
3504750 166 18343582945981403529
3711267 37 11383821697918307346
406291 66 18410572915779012767
437795 163 18335421240792570682
44280117 145 18338798906374932340
44426701 97 18338788031428530072
4461854 278 18130793369103868606
4516262 110 10663822945050461905
45377200 153 18272374114801710814
4756088 132 17687455772353891234
5028188 123 18269847411611347844
54039377 194 18410294722130760711
5718773 13 18410291427842981900
6058803 2 18265917855084686581
636775 8 18411143498717319022
6691757 9 16056870347593962629
6698420 124 10663810881078060788
999808 66 18271804596908792334

> <PUBCHEM_SHAPE_MULTIPOLES>
650.22
28.59
5.46
1.1
24.95
1.67
0.15
-38.88
2.18
-4.61
-1.04
-2.46
-0.65
-1.79

> <PUBCHEM_SHAPE_SELFOVERLAP>
1448.049

> <PUBCHEM_SHAPE_VOLUME>
344

> <PUBCHEM_COORDINATE_TYPE>
2
5
10

$$$$
