10141647
  -OEChem-02172602533D

 66 68  0     1  0  0  0  0  0999 V2000
    0.0681   -1.1557   -2.7944 F   0  0  0  0  0  0  0  0  0  0  0  0
   -0.1531    1.4963    0.0437 O   0  0  0  0  0  0  0  0  0  0  0  0
    1.4227    0.8625   -1.5560 O   0  0  0  0  0  0  0  0  0  0  0  0
   -2.0712    3.9529   -2.6308 O   0  0  0  0  0  0  0  0  0  0  0  0
   -2.5563    4.2554    0.2028 O   0  0  0  0  0  0  0  0  0  0  0  0
    0.7105    3.1126   -3.1173 O   0  0  0  0  0  0  0  0  0  0  0  0
   -2.5273    0.9499    1.3683 O   0  0  0  0  0  0  0  0  0  0  0  0
   -4.0568   -0.6209    1.7047 O   0  0  0  0  0  0  0  0  0  0  0  0
   -3.2500    0.5484    3.5200 O   0  0  0  0  0  0  0  0  0  0  0  0
   -2.9112   -3.8976   -0.3099 O   0  0  0  0  0  0  0  0  0  0  0  0
    3.6151    0.0637    1.1172 N   0  0  0  0  0  0  0  0  0  0  0  0
    2.8295    0.8495    0.3612 N   0  0  0  0  0  0  0  0  0  0  0  0
   -1.1121    3.6300   -1.6227 C   0  0  1  0  0  0  0  0  0  0  0  0
   -1.8704    3.1525   -0.3841 C   0  0  1  0  0  0  0  0  0  0  0  0
   -0.1689    2.5466   -2.1458 C   0  0  2  0  0  0  0  0  0  0  0  0
   -0.9087    2.5504    0.6429 C   0  0  1  0  0  0  0  0  0  0  0  0
    0.6787    1.9558   -1.0192 C   0  0  1  0  0  0  0  0  0  0  0  0
   -1.6537    1.9611    1.8366 C   0  0  0  0  0  0  0  0  0  0  0  0
    2.2510    0.2019   -0.6906 C   0  0  0  0  0  0  0  0  0  0  0  0
    2.6890   -1.0979   -0.6180 C   0  0  0  0  0  0  0  0  0  0  0  0
    3.5253   -1.1247    0.5142 C   0  0  0  0  0  0  0  0  0  0  0  0
    4.3217    0.5337    2.2738 C   0  0  0  0  0  0  0  0  0  0  0  0
    2.3668   -2.2219   -1.5136 C   0  0  0  0  0  0  0  0  0  0  0  0
    4.2662   -2.2915    1.0543 C   0  0  0  0  0  0  0  0  0  0  0  0
    0.9536   -2.6684   -1.1933 C   0  0  0  0  0  0  0  0  0  0  0  0
    3.3692    1.0150    3.3701 C   0  0  0  0  0  0  0  0  0  0  0  0
    5.3567    1.6024    1.9171 C   0  0  0  0  0  0  0  0  0  0  0  0
   -3.2781    0.3128    2.3195 C   0  0  0  0  0  0  0  0  0  0  0  0
   -0.1295   -2.0996   -1.8636 C   0  0  0  0  0  0  0  0  0  0  0  0
    0.7379   -3.6502   -0.2262 C   0  0  0  0  0  0  0  0  0  0  0  0
   -1.4282   -2.5128   -1.5668 C   0  0  0  0  0  0  0  0  0  0  0  0
   -0.5609   -4.0632    0.0705 C   0  0  0  0  0  0  0  0  0  0  0  0
   -1.6439   -3.4945   -0.5997 C   0  0  0  0  0  0  0  0  0  0  0  0
   -4.9096   -1.3799    2.5681 C   0  0  0  0  0  0  0  0  0  0  0  0
   -3.9720   -3.2746   -1.0327 C   0  0  0  0  0  0  0  0  0  0  0  0
   -0.5660    4.5572   -1.4130 H   0  0  0  0  0  0  0  0  0  0  0  0
   -2.6293    2.4223   -0.6893 H   0  0  0  0  0  0  0  0  0  0  0  0
   -0.7350    1.7567   -2.6538 H   0  0  0  0  0  0  0  0  0  0  0  0
   -0.2203    3.3160    1.0249 H   0  0  0  0  0  0  0  0  0  0  0  0
    1.3820    2.7149   -0.6484 H   0  0  0  0  0  0  0  0  0  0  0  0
   -0.9325    1.5092    2.5284 H   0  0  0  0  0  0  0  0  0  0  0  0
   -2.2211    2.7365    2.3634 H   0  0  0  0  0  0  0  0  0  0  0  0
   -2.5594    3.1423   -2.8551 H   0  0  0  0  0  0  0  0  0  0  0  0
   -1.8922    4.9096    0.4794 H   0  0  0  0  0  0  0  0  0  0  0  0
    1.2219    3.8186   -2.6864 H   0  0  0  0  0  0  0  0  0  0  0  0
    4.8743   -0.3196    2.6837 H   0  0  0  0  0  0  0  0  0  0  0  0
    2.4309   -1.9069   -2.5627 H   0  0  0  0  0  0  0  0  0  0  0  0
    3.0602   -3.0634   -1.4189 H   0  0  0  0  0  0  0  0  0  0  0  0
    3.9741   -2.4876    2.0917 H   0  0  0  0  0  0  0  0  0  0  0  0
    4.0784   -3.2093    0.4922 H   0  0  0  0  0  0  0  0  0  0  0  0
    5.3457   -2.1082    1.0262 H   0  0  0  0  0  0  0  0  0  0  0  0
    2.6540    0.2294    3.6381 H   0  0  0  0  0  0  0  0  0  0  0  0
    3.9239    1.2904    4.2731 H   0  0  0  0  0  0  0  0  0  0  0  0
    2.7949    1.8901    3.0459 H   0  0  0  0  0  0  0  0  0  0  0  0
    5.9419    1.8854    2.7984 H   0  0  0  0  0  0  0  0  0  0  0  0
    6.0509    1.2341    1.1536 H   0  0  0  0  0  0  0  0  0  0  0  0
    4.8793    2.5068    1.5239 H   0  0  0  0  0  0  0  0  0  0  0  0
    1.5725   -4.1020    0.3029 H   0  0  0  0  0  0  0  0  0  0  0  0
   -2.2226   -2.0291   -2.1244 H   0  0  0  0  0  0  0  0  0  0  0  0
   -0.7228   -4.8283    0.8249 H   0  0  0  0  0  0  0  0  0  0  0  0
   -4.3117   -1.9434    3.2907 H   0  0  0  0  0  0  0  0  0  0  0  0
   -5.6151   -0.7189    3.0804 H   0  0  0  0  0  0  0  0  0  0  0  0
   -5.4732   -2.0864    1.9528 H   0  0  0  0  0  0  0  0  0  0  0  0
   -4.0210   -2.1994   -0.8303 H   0  0  0  0  0  0  0  0  0  0  0  0
   -3.9099   -3.4921   -2.1044 H   0  0  0  0  0  0  0  0  0  0  0  0
   -4.9091   -3.7104   -0.6711 H   0  0  0  0  0  0  0  0  0  0  0  0
  1 29  1  0  0  0  0
  2 16  1  0  0  0  0
  2 17  1  0  0  0  0
  3 17  1  0  0  0  0
  3 19  1  0  0  0  0
  4 13  1  0  0  0  0
  4 43  1  0  0  0  0
  5 14  1  0  0  0  0
  5 44  1  0  0  0  0
  6 15  1  0  0  0  0
  6 45  1  0  0  0  0
  7 18  1  0  0  0  0
  7 28  1  0  0  0  0
  8 28  1  0  0  0  0
  8 34  1  0  0  0  0
  9 28  2  0  0  0  0
 10 33  1  0  0  0  0
 10 35  1  0  0  0  0
 11 12  1  0  0  0  0
 11 21  1  0  0  0  0
 11 22  1  0  0  0  0
 12 19  2  0  0  0  0
 13 14  1  0  0  0  0
 13 15  1  0  0  0  0
 13 36  1  0  0  0  0
 14 16  1  0  0  0  0
 14 37  1  0  0  0  0
 15 17  1  0  0  0  0
 15 38  1  0  0  0  0
 16 18  1  0  0  0  0
 16 39  1  0  0  0  0
 17 40  1  0  0  0  0
 18 41  1  0  0  0  0
 18 42  1  0  0  0  0
 19 20  1  0  0  0  0
 20 21  2  0  0  0  0
 20 23  1  0  0  0  0
 21 24  1  0  0  0  0
 22 26  1  0  0  0  0
 22 27  1  0  0  0  0
 22 46  1  0  0  0  0
 23 25  1  0  0  0  0
 23 47  1  0  0  0  0
 23 48  1  0  0  0  0
 24 49  1  0  0  0  0
 24 50  1  0  0  0  0
 24 51  1  0  0  0  0
 25 29  2  0  0  0  0
 25 30  1  0  0  0  0
 26 52  1  0  0  0  0
 26 53  1  0  0  0  0
 26 54  1  0  0  0  0
 27 55  1  0  0  0  0
 27 56  1  0  0  0  0
 27 57  1  0  0  0  0
 29 31  1  0  0  0  0
 30 32  2  0  0  0  0
 30 58  1  0  0  0  0
 31 33  2  0  0  0  0
 31 59  1  0  0  0  0
 32 33  1  0  0  0  0
 32 60  1  0  0  0  0
 34 61  1  0  0  0  0
 34 62  1  0  0  0  0
 34 63  1  0  0  0  0
 35 64  1  0  0  0  0
 35 65  1  0  0  0  0
 35 66  1  0  0  0  0
M  END
> <PUBCHEM_COMPOUND_CID>
10141647

> <PUBCHEM_CONFORMER_RMSD>
1.2

> <PUBCHEM_CONFORMER_DIVERSEORDER>
1
89
37
87
32
28
55
80
52
54
45
86
31
38
34
33
90
44
27
41
83
69
35
46
47
85
75
40
56
51
43
59
22
6
15
92
65
14
29
79
62
57
72
9
81
24
70
71
88
58
11
82
25
12
39
30
19
18
76
84
60
53
36
78
66
77
67
20
21
63
13
10
42
64
17
48
61
50
26
3
16
23
7
73
4
2
49
8
91
68
74
5

> <PUBCHEM_MMFF94_PARTIAL_CHARGES>
39
1 -0.19
10 -0.36
11 0.31
12 -0.71
13 0.28
14 0.28
15 0.28
16 0.28
17 0.56
18 0.28
19 0.35
2 -0.56
20 -0.18
21 -0.33
22 0.26
23 0.32
24 0.18
25 -0.14
28 0.87
29 0.19
3 -0.34
30 -0.15
31 -0.15
32 -0.15
33 0.08
34 0.28
35 0.28
4 -0.68
43 0.4
44 0.4
45 0.4
5 -0.68
58 0.15
59 0.15
6 -0.68
60 0.15
7 -0.43
8 -0.43
9 -0.57

> <PUBCHEM_EFFECTIVE_ROTOR_COUNT>
11.2

> <PUBCHEM_PHARMACOPHORE_FEATURES>
12
1 10 acceptor
1 2 acceptor
1 4 acceptor
1 4 donor
1 5 acceptor
1 5 donor
1 6 acceptor
1 6 donor
3 22 26 27 hydrophobe
5 11 12 19 20 21 rings
6 2 13 14 15 16 17 rings
6 25 29 30 31 32 33 rings

> <PUBCHEM_HEAVY_ATOM_COUNT>
35

> <PUBCHEM_ATOM_DEF_STEREO_COUNT>
5

> <PUBCHEM_ATOM_UDEF_STEREO_COUNT>
0

> <PUBCHEM_BOND_DEF_STEREO_COUNT>
0

> <PUBCHEM_BOND_UDEF_STEREO_COUNT>
0

> <PUBCHEM_ISOTOPIC_ATOM_COUNT>
0

> <PUBCHEM_COMPONENT_COUNT>
1

> <PUBCHEM_CACTVS_TAUTO_COUNT>
1

> <PUBCHEM_CONFORMER_ID>
009ABFCF00000001

> <PUBCHEM_MMFF94_ENERGY>
101.6952

> <PUBCHEM_FEATURE_SELFOVERLAP>
60.905

> <PUBCHEM_SHAPE_FINGERPRINT>
11513181 2 17274560817760141975
11582403 64 15801523955111697596
12403259 327 16837445314430225753
12522641 24 17193762923069531777
12788726 201 17691352682385514806
13383668 90 15438233158521773394
13965767 371 18271536324804377354
14400156 162 17898819484534764146
14725015 67 16817162564009188625
15297060 5 17125692466818542831
15484559 13 16455793133681647405
19319366 153 16104729142171812359
238 59 17481400713296048740
25222932 49 16957087899185826691
35225 105 17700657814467538170
469060 322 18189318234139820610
474144 1 17761224606100005051
4742675 86 17702925011644072667
59444896 2 17541111191672028564
5951187 136 15622044130684127865

> <PUBCHEM_SHAPE_MULTIPOLES>
650.22
7.82
6.26
3.42
3.21
0.19
-1.14
1.55
-8.13
-4.94
3.6
-1.14
-2.3
0.84

> <PUBCHEM_SHAPE_SELFOVERLAP>
1365.876

> <PUBCHEM_SHAPE_VOLUME>
369.3

> <PUBCHEM_COORDINATE_TYPE>
2
5
10

$$$$
