14017925
  -OEChem-02172602593D

 50 52  0     1  0  0  0  0  0999 V2000
    5.3565    0.7485   -0.8211 O   0  0  0  0  0  0  0  0  0  0  0  0
   -0.5882    2.9157    0.5022 O   0  0  0  0  0  0  0  0  0  0  0  0
    3.4128    1.5567   -1.6955 O   0  0  0  0  0  0  0  0  0  0  0  0
   -5.3614   -0.9015   -1.1672 O   0  0  0  0  0  0  0  0  0  0  0  0
    0.9367   -1.0182    0.4464 C   0  0  2  0  0  0  0  0  0  0  0  0
    1.7960    0.2342    0.0786 C   0  0  2  0  0  0  0  0  0  0  0  0
    3.3480    0.0291    0.1975 C   0  0  2  0  0  0  0  0  0  0  0  0
    1.3763   -2.2049   -0.4717 C   0  0  0  0  0  0  0  0  0  0  0  0
    3.7602   -1.4403   -0.0428 C   0  0  0  0  0  0  0  0  0  0  0  0
    2.8112   -2.1414   -0.9993 C   0  0  0  0  0  0  0  0  0  0  0  0
    1.2987    1.4896    0.8038 C   0  0  0  0  0  0  0  0  0  0  0  0
   -0.5592   -0.7016    0.2431 C   0  0  0  0  0  0  0  0  0  0  0  0
    1.0796   -1.4313    1.9315 C   0  0  0  0  0  0  0  0  0  0  0  0
    3.9690    0.5161    1.5176 C   0  0  0  0  0  0  0  0  0  0  0  0
   -1.0502    0.6167    0.2520 C   0  0  0  0  0  0  0  0  0  0  0  0
   -0.1492    1.7687    0.4959 C   0  0  0  0  0  0  0  0  0  0  0  0
    4.0075    0.8676   -0.8803 C   0  0  0  0  0  0  0  0  0  0  0  0
   -1.4954   -1.7447    0.0859 C   0  0  0  0  0  0  0  0  0  0  0  0
   -2.4169    0.8760    0.0623 C   0  0  0  0  0  0  0  0  0  0  0  0
   -3.3137   -0.1738   -0.1173 C   0  0  0  0  0  0  0  0  0  0  0  0
   -2.8545   -1.4845   -0.0986 C   0  0  0  0  0  0  0  0  0  0  0  0
   -4.7639    0.1074   -0.3203 C   0  0  0  0  0  0  0  0  0  0  0  0
   -5.0759    1.4514   -1.0273 C   0  0  0  0  0  0  0  0  0  0  0  0
   -5.5240    0.0646    1.0246 C   0  0  0  0  0  0  0  0  0  0  0  0
    1.5627    0.4016   -0.9860 H   0  0  0  0  0  0  0  0  0  0  0  0
    0.7301   -2.2723   -1.3574 H   0  0  0  0  0  0  0  0  0  0  0  0
    1.2419   -3.1553    0.0622 H   0  0  0  0  0  0  0  0  0  0  0  0
    3.7805   -1.9967    0.9014 H   0  0  0  0  0  0  0  0  0  0  0  0
    4.7774   -1.5264   -0.4430 H   0  0  0  0  0  0  0  0  0  0  0  0
    3.1664   -3.1593   -1.1998 H   0  0  0  0  0  0  0  0  0  0  0  0
    2.8199   -1.6211   -1.9655 H   0  0  0  0  0  0  0  0  0  0  0  0
    1.8721    2.3601    0.4639 H   0  0  0  0  0  0  0  0  0  0  0  0
    1.4049    1.4204    1.8906 H   0  0  0  0  0  0  0  0  0  0  0  0
    2.0994   -1.7141    2.1966 H   0  0  0  0  0  0  0  0  0  0  0  0
    0.7691   -0.6312    2.6123 H   0  0  0  0  0  0  0  0  0  0  0  0
    0.4495   -2.2988    2.1652 H   0  0  0  0  0  0  0  0  0  0  0  0
    3.9430    1.6086    1.6049 H   0  0  0  0  0  0  0  0  0  0  0  0
    3.4482    0.1012    2.3853 H   0  0  0  0  0  0  0  0  0  0  0  0
    5.0202    0.2168    1.6104 H   0  0  0  0  0  0  0  0  0  0  0  0
   -1.1759   -2.7839    0.1120 H   0  0  0  0  0  0  0  0  0  0  0  0
   -2.7680    1.9028    0.0851 H   0  0  0  0  0  0  0  0  0  0  0  0
   -3.5329   -2.3258   -0.2115 H   0  0  0  0  0  0  0  0  0  0  0  0
    5.8020    1.2832   -1.5123 H   0  0  0  0  0  0  0  0  0  0  0  0
   -6.1408    1.5198   -1.2808 H   0  0  0  0  0  0  0  0  0  0  0  0
   -4.8314    2.3195   -0.4070 H   0  0  0  0  0  0  0  0  0  0  0  0
   -4.5275    1.5295   -1.9736 H   0  0  0  0  0  0  0  0  0  0  0  0
   -6.5962    0.2384    0.8772 H   0  0  0  0  0  0  0  0  0  0  0  0
   -5.1441    0.8154    1.7260 H   0  0  0  0  0  0  0  0  0  0  0  0
   -5.4315   -0.9214    1.4955 H   0  0  0  0  0  0  0  0  0  0  0  0
   -6.3193   -0.7383   -1.2056 H   0  0  0  0  0  0  0  0  0  0  0  0
  1 17  1  0  0  0  0
  1 43  1  0  0  0  0
  2 16  2  0  0  0  0
  3 17  2  0  0  0  0
  4 22  1  0  0  0  0
  4 50  1  0  0  0  0
  5  6  1  0  0  0  0
  5  8  1  0  0  0  0
  5 12  1  0  0  0  0
  5 13  1  0  0  0  0
  6  7  1  0  0  0  0
  6 11  1  0  0  0  0
  6 25  1  0  0  0  0
  7  9  1  0  0  0  0
  7 14  1  0  0  0  0
  7 17  1  0  0  0  0
  8 10  1  0  0  0  0
  8 26  1  0  0  0  0
  8 27  1  0  0  0  0
  9 10  1  0  0  0  0
  9 28  1  0  0  0  0
  9 29  1  0  0  0  0
 10 30  1  0  0  0  0
 10 31  1  0  0  0  0
 11 16  1  0  0  0  0
 11 32  1  0  0  0  0
 11 33  1  0  0  0  0
 12 15  2  0  0  0  0
 12 18  1  0  0  0  0
 13 34  1  0  0  0  0
 13 35  1  0  0  0  0
 13 36  1  0  0  0  0
 14 37  1  0  0  0  0
 14 38  1  0  0  0  0
 14 39  1  0  0  0  0
 15 16  1  0  0  0  0
 15 19  1  0  0  0  0
 18 21  2  0  0  0  0
 18 40  1  0  0  0  0
 19 20  2  0  0  0  0
 19 41  1  0  0  0  0
 20 21  1  0  0  0  0
 20 22  1  0  0  0  0
 21 42  1  0  0  0  0
 22 23  1  0  0  0  0
 22 24  1  0  0  0  0
 23 44  1  0  0  0  0
 23 45  1  0  0  0  0
 23 46  1  0  0  0  0
 24 47  1  0  0  0  0
 24 48  1  0  0  0  0
 24 49  1  0  0  0  0
M  END
> <PUBCHEM_COMPOUND_CID>
14017925

> <PUBCHEM_CONFORMER_RMSD>
0.6

> <PUBCHEM_CONFORMER_DIVERSEORDER>
1
6
4
5
3
2

> <PUBCHEM_MMFF94_PARTIAL_CHARGES>
21
1 -0.65
11 0.06
12 -0.14
15 0.09
16 0.42
17 0.66
18 -0.15
19 -0.15
2 -0.57
20 -0.14
21 -0.15
22 0.42
3 -0.57
4 -0.68
40 0.15
41 0.15
42 0.15
43 0.5
5 0.14
50 0.4
7 0.06

> <PUBCHEM_EFFECTIVE_ROTOR_COUNT>
3

> <PUBCHEM_PHARMACOPHORE_FEATURES>
10
1 1 acceptor
1 2 acceptor
1 3 acceptor
1 4 acceptor
1 4 donor
3 1 3 17 anion
3 22 23 24 hydrophobe
6 12 15 18 19 20 21 rings
6 5 6 11 12 15 16 rings
6 5 6 7 8 9 10 rings

> <PUBCHEM_HEAVY_ATOM_COUNT>
24

> <PUBCHEM_ATOM_DEF_STEREO_COUNT>
3

> <PUBCHEM_ATOM_UDEF_STEREO_COUNT>
0

> <PUBCHEM_BOND_DEF_STEREO_COUNT>
0

> <PUBCHEM_BOND_UDEF_STEREO_COUNT>
0

> <PUBCHEM_ISOTOPIC_ATOM_COUNT>
0

> <PUBCHEM_COMPONENT_COUNT>
1

> <PUBCHEM_CACTVS_TAUTO_COUNT>
2

> <PUBCHEM_CONFORMER_ID>
00D5E58500000001

> <PUBCHEM_MMFF94_ENERGY>
89.7284

> <PUBCHEM_FEATURE_SELFOVERLAP>
50.84

> <PUBCHEM_SHAPE_FINGERPRINT>
10090160 65 18260827094271060862
10498660 4 18412263938855259446
10906281 52 18338529628577516576
10967382 1 18341892995712550650
116883 192 18199472064966233934
12236239 1 17967247611699235816
12553582 1 18342175574638469633
12788726 201 18341329981440427281
13140716 1 18196645413691867296
13224815 77 18260275126517016355
13583140 156 12319179447548386529
14787075 74 18188214298832996635
14790565 3 18268720411570703297
15081414 286 18342465828496632777
15196674 1 18340485578185097507
15664445 248 17988376948130942116
15788980 27 18114177519408842323
1601671 61 18413670218675211041
16752209 62 18269829831360691233
16945 1 18342746234300540128
17349148 13 18409443665781289816
17492 54 18262247715329601348
17959699 21 18113900442225545901
17980427 23 18045482356915617916
18681886 176 18338517547325136052
19784866 9 17894623747239257179
19862831 5 18409729539078941479
200 152 17561360686655676891
20645477 70 18201159858127873974
20691752 17 17678193598301328664
20715895 44 18042393639263022645
21267235 1 18341340989351915994
21285901 2 18337952290420272509
21421861 104 18116428133395199963
21637258 2 14979683152600826988
21641784 216 18189069636880175509
221357 26 18341038658894731061
23227448 37 18041002890134302199
23402539 116 18343291561570733047
23557571 272 17988645130209498338
23558518 356 18050857610716139489
23559900 14 18338518543367522390
23566358 2 18339361833998656940
25147074 1 18198072378348311000
2748010 2 17981321502041920704
2871803 45 18342178834729286526
296302 2 16298385764436535283
3004659 81 18334856078672197782
3060560 45 17847057805165337046
34797466 226 16200429217161725537
34934 24 18341886420070186602
350125 39 18268432339470919506
4280585 95 17263860087695611550
4340502 62 16660368056665203707
474 4 17822016436395483462
5104073 3 18342174436688505683
537710 114 18411421713017162664
59755656 215 18412265000461573454
59755656 520 17095525123522690370
633830 44 17894347795728060966
70251023 43 18054239729958761819
7164475 11 18268151955220989652

> <PUBCHEM_SHAPE_MULTIPOLES>
470.43
10.72
2.3
1.26
8.08
0.14
-0.15
1.26
2.6
-0.7
0.16
-0.61
0.03
-0.08

> <PUBCHEM_SHAPE_SELFOVERLAP>
1013.563

> <PUBCHEM_SHAPE_VOLUME>
257.3

> <PUBCHEM_COORDINATE_TYPE>
2
5
10

$$$$
