157009746
  -OEChem-02172602273D

 47 49  0     1  0  0  0  0  0999 V2000
   -0.6079    4.0215    0.2069 O   0  0  0  0  0  0  0  0  0  0  0  0
   -2.4564    4.1022   -1.1427 O   0  0  0  0  0  0  0  0  0  0  0  0
   -3.4249    2.0014    0.8593 O   0  0  0  0  0  0  0  0  0  0  0  0
    3.6740   -2.3685    0.0354 O   0  0  0  0  0  0  0  0  0  0  0  0
    5.6953   -0.7453    1.0378 O   0  0  0  0  0  0  0  0  0  0  0  0
   -1.6289   -3.1179   -1.4921 O   0  0  0  0  0  0  0  0  0  0  0  0
   -2.6437   -4.2952    0.8125 O   0  0  0  0  0  0  0  0  0  0  0  0
   -0.1196    1.7272    0.0886 C   0  0  1  0  0  0  0  0  0  0  0  0
   -1.4949    1.9654   -0.5197 C   0  0  2  0  0  0  0  0  0  0  0  0
    0.9460    1.5613   -0.9975 C   0  0  0  0  0  0  0  0  0  0  0  0
    0.1106    2.9918    0.8931 C   0  0  0  0  0  0  0  0  0  0  0  0
   -1.5984    3.4644   -0.5512 C   0  0  0  0  0  0  0  0  0  0  0  0
   -2.5667    1.3229    0.2998 C   0  0  0  0  0  0  0  0  0  0  0  0
    2.2088    0.9439   -0.4557 C   0  0  0  0  0  0  0  0  0  0  0  0
   -2.5862   -0.1612    0.4318 C   0  0  0  0  0  0  0  0  0  0  0  0
    2.3644   -0.4423   -0.4578 C   0  0  0  0  0  0  0  0  0  0  0  0
    3.2232    1.7587    0.0470 C   0  0  0  0  0  0  0  0  0  0  0  0
   -2.0945   -0.9598   -0.6006 C   0  0  0  0  0  0  0  0  0  0  0  0
    3.5343   -1.0135    0.0426 C   0  0  0  0  0  0  0  0  0  0  0  0
   -3.0952   -0.7518    1.5885 C   0  0  0  0  0  0  0  0  0  0  0  0
    4.3932    1.1874    0.5474 C   0  0  0  0  0  0  0  0  0  0  0  0
    4.5487   -0.1988    0.5452 C   0  0  0  0  0  0  0  0  0  0  0  0
   -2.1118   -2.3490   -0.4764 C   0  0  0  0  0  0  0  0  0  0  0  0
   -3.1124   -2.1410    1.7127 C   0  0  0  0  0  0  0  0  0  0  0  0
   -2.6207   -2.9396    0.6802 C   0  0  0  0  0  0  0  0  0  0  0  0
    2.5904   -3.1290   -0.4958 C   0  0  0  0  0  0  0  0  0  0  0  0
   -1.1268   -2.4353   -2.6394 C   0  0  0  0  0  0  0  0  0  0  0  0
   -0.0862    0.8593    0.7575 H   0  0  0  0  0  0  0  0  0  0  0  0
   -1.5671    1.6305   -1.5591 H   0  0  0  0  0  0  0  0  0  0  0  0
    0.5712    0.9114   -1.7995 H   0  0  0  0  0  0  0  0  0  0  0  0
    1.1770    2.5178   -1.4847 H   0  0  0  0  0  0  0  0  0  0  0  0
   -0.3150    2.9060    1.8997 H   0  0  0  0  0  0  0  0  0  0  0  0
    1.1528    3.2937    0.9968 H   0  0  0  0  0  0  0  0  0  0  0  0
    1.5409   -1.0248   -0.8556 H   0  0  0  0  0  0  0  0  0  0  0  0
    3.1300    2.8407    0.0374 H   0  0  0  0  0  0  0  0  0  0  0  0
   -1.7253   -0.4704   -1.4914 H   0  0  0  0  0  0  0  0  0  0  0  0
   -3.4781   -0.1446    2.4045 H   0  0  0  0  0  0  0  0  0  0  0  0
    5.1775    1.8340    0.9319 H   0  0  0  0  0  0  0  0  0  0  0  0
   -3.5109   -2.5880    2.6195 H   0  0  0  0  0  0  0  0  0  0  0  0
    6.2816   -0.0310    1.3413 H   0  0  0  0  0  0  0  0  0  0  0  0
    2.8720   -4.1848   -0.4236 H   0  0  0  0  0  0  0  0  0  0  0  0
    1.6784   -3.0029    0.0980 H   0  0  0  0  0  0  0  0  0  0  0  0
    2.4291   -2.9157   -1.5580 H   0  0  0  0  0  0  0  0  0  0  0  0
   -3.0296   -4.5226    1.6759 H   0  0  0  0  0  0  0  0  0  0  0  0
   -1.9147   -1.8726   -3.1518 H   0  0  0  0  0  0  0  0  0  0  0  0
   -0.2592   -1.8137   -2.3952 H   0  0  0  0  0  0  0  0  0  0  0  0
   -0.7782   -3.2006   -3.3408 H   0  0  0  0  0  0  0  0  0  0  0  0
  1 11  1  0  0  0  0
  1 12  1  0  0  0  0
  2 12  2  0  0  0  0
  3 13  2  0  0  0  0
  4 19  1  0  0  0  0
  4 26  1  0  0  0  0
  5 22  1  0  0  0  0
  5 40  1  0  0  0  0
  6 23  1  0  0  0  0
  6 27  1  0  0  0  0
  7 25  1  0  0  0  0
  7 44  1  0  0  0  0
  8  9  1  0  0  0  0
  8 10  1  0  0  0  0
  8 11  1  0  0  0  0
  8 28  1  0  0  0  0
  9 12  1  0  0  0  0
  9 13  1  0  0  0  0
  9 29  1  0  0  0  0
 10 14  1  0  0  0  0
 10 30  1  0  0  0  0
 10 31  1  0  0  0  0
 11 32  1  0  0  0  0
 11 33  1  0  0  0  0
 13 15  1  0  0  0  0
 14 16  2  0  0  0  0
 14 17  1  0  0  0  0
 15 18  2  0  0  0  0
 15 20  1  0  0  0  0
 16 19  1  0  0  0  0
 16 34  1  0  0  0  0
 17 21  2  0  0  0  0
 17 35  1  0  0  0  0
 18 23  1  0  0  0  0
 18 36  1  0  0  0  0
 19 22  2  0  0  0  0
 20 24  2  0  0  0  0
 20 37  1  0  0  0  0
 21 22  1  0  0  0  0
 21 38  1  0  0  0  0
 23 25  2  0  0  0  0
 24 25  1  0  0  0  0
 24 39  1  0  0  0  0
 26 41  1  0  0  0  0
 26 42  1  0  0  0  0
 26 43  1  0  0  0  0
 27 45  1  0  0  0  0
 27 46  1  0  0  0  0
 27 47  1  0  0  0  0
M  END
> <PUBCHEM_COMPOUND_CID>
157009746

> <PUBCHEM_CONFORMER_RMSD>
1.2

> <PUBCHEM_CONFORMER_DIVERSEORDER>
2
156
97
27
147
105
36
55
3
154
85
66
132
159
81
52
125
112
123
72
37
121
56
103
169
137
173
122
63
71
89
76
45
113
78
84
11
98
75
149
158
25
133
143
164
134
17
170
15
43
16
92
114
163
160
65
145
20
100
150
142
44
148
9
171
118
8
161
32
102
157
22
33
155
90
91
116
57
4
162
106
62
12
166
86
79
39
165
54
10
69
168
67
95
77
13
128
46
93
139
146
120
129
174
87
64
109
1
68
135
61
107
51
35
115
50
144
101
108
167
88
140
83
60
130
136
172
153
119
99
48
117
42
152
104
70
47
14
151
131
80
30
111
138
110
126
41
124
23
28
34
177
38
82
5
7
74
19
127
29
59
24
6
96
176
94
26
73
49
141
58
175
40
31
53
21
18

> <PUBCHEM_MMFF94_PARTIAL_CHARGES>
34
1 -0.43
10 0.14
11 0.28
12 0.66
13 0.42
14 -0.14
15 0.09
16 -0.15
17 -0.15
18 -0.15
19 0.08
2 -0.57
20 -0.15
21 -0.15
22 0.08
23 0.08
24 -0.15
25 0.08
26 0.28
27 0.28
3 -0.57
34 0.15
35 0.15
36 0.15
37 0.15
38 0.15
39 0.15
4 -0.36
40 0.45
44 0.45
5 -0.53
6 -0.36
7 -0.53
9 0.12

> <PUBCHEM_EFFECTIVE_ROTOR_COUNT>
6.8

> <PUBCHEM_PHARMACOPHORE_FEATURES>
10
1 2 acceptor
1 3 acceptor
1 4 acceptor
1 5 donor
1 6 acceptor
1 7 donor
1 9 anion
5 1 8 9 11 12 rings
6 14 16 17 19 21 22 rings
6 15 18 20 23 24 25 rings

> <PUBCHEM_HEAVY_ATOM_COUNT>
27

> <PUBCHEM_ATOM_DEF_STEREO_COUNT>
1

> <PUBCHEM_ATOM_UDEF_STEREO_COUNT>
1

> <PUBCHEM_BOND_DEF_STEREO_COUNT>
0

> <PUBCHEM_BOND_UDEF_STEREO_COUNT>
0

> <PUBCHEM_ISOTOPIC_ATOM_COUNT>
0

> <PUBCHEM_COMPONENT_COUNT>
1

> <PUBCHEM_CACTVS_TAUTO_COUNT>
-1

> <PUBCHEM_CONFORMER_ID>
095BC75200000002

> <PUBCHEM_MMFF94_ENERGY>
88.5647

> <PUBCHEM_FEATURE_SELFOVERLAP>
50.747

> <PUBCHEM_SHAPE_FINGERPRINT>
10483366 6 18197469932403085557
10616163 171 18410857659673715286
10675989 125 17187836520803802320
11014199 57 18265621072543092466
11370993 70 17979346465662985700
11552529 35 17988923422341220632
11578080 2 17559655403812851833
11720765 8 17267749455733333213
12422481 6 18122938381062326521
12539773 59 17270623582706595979
12553582 1 18194692689672926422
12633257 1 17202495561415589682
12788726 201 18265309768954713859
13004483 165 18268983353478038797
13122387 1 17113541415927905690
13140716 1 18411419557217886744
138480 1 16247434043360028859
13965767 371 17843994522383051211
14068700 675 17557405876279692823
14081887 123 18341322323908935336
14725015 67 17977392633584771891
14844126 61 18336537261852211274
14856354 85 18338524148732536278
15927050 60 17690276016000750045
17627616 140 16245483518376049606
17974551 9 17536046458287507362
19026451 147 17336730679818124182
19930381 70 17472423626099874467
20775530 9 18117281560592315730
21133410 52 16973069468974669278
21133410 58 17688295103674330039
21344244 246 17400062090590981805
21796203 349 17686094920691978664
23559900 14 18124025733849027528
23728640 28 18336263436270341697
238918 7 18125176948071222441
3298306 158 17399514528914453805
3459 110 17701515519953371616
392239 28 17914042368870602616
4403749 210 18268687534059971072
463206 1 18190469444020348770
5309563 4 17976544132330106867
532947 4 17113254443350832309
5364581 5 18268971220871285392
550186 72 18263640826954721844
563151 97 17043730687440724877
56633871 153 18339375170357843043
7097593 13 18052557735319170947
9709674 26 18267022765395396564

> <PUBCHEM_SHAPE_MULTIPOLES>
514.56
8.12
5.6
1.46
9.64
1.38
-0.48
-4.18
3.17
-4.02
-0.89
-1.1
-0.89
0.5

> <PUBCHEM_SHAPE_SELFOVERLAP>
1115.526

> <PUBCHEM_SHAPE_VOLUME>
282

> <PUBCHEM_COORDINATE_TYPE>
2
5
10

$$$$
