70697812
  -OEChem-03052615073D

 52 55  0     1  0  0  0  0  0999 V2000
    3.6044   -0.1562   -1.0125 O   0  0  0  0  0  0  0  0  0  0  0  0
    3.3050    1.2067    2.3818 O   0  0  0  0  0  0  0  0  0  0  0  0
    5.6483   -0.5594    2.5376 O   0  0  0  0  0  0  0  0  0  0  0  0
    7.0862   -0.5813    0.0399 O   0  0  0  0  0  0  0  0  0  0  0  0
    4.7586   -0.4421   -3.4880 O   0  0  0  0  0  0  0  0  0  0  0  0
    1.6471   -1.6519    0.4954 O   0  0  0  0  0  0  0  0  0  0  0  0
    1.5763    3.0062   -0.5096 O   0  0  0  0  0  0  0  0  0  0  0  0
   -2.5460    0.6817   -0.1340 O   0  0  0  0  0  0  0  0  0  0  0  0
   -1.1736    2.9735   -0.5859 O   0  0  0  0  0  0  0  0  0  0  0  0
   -0.6645   -2.8380    0.6846 O   0  0  0  0  0  0  0  0  0  0  0  0
   -8.8409    0.1434   -0.1899 O   0  0  0  0  0  0  0  0  0  0  0  0
    3.6734    0.2406    1.3978 C   0  0  2  0  0  0  0  0  0  0  0  0
    5.1996    0.1210    1.3641 C   0  0  2  0  0  0  0  0  0  0  0  0
    3.1275    0.6942    0.0351 C   0  0  2  0  0  0  0  0  0  0  0  0
    5.6682   -0.6771    0.1478 C   0  0  1  0  0  0  0  0  0  0  0  0
    5.0275   -0.1406   -1.1336 C   0  0  1  0  0  0  0  0  0  0  0  0
    1.6120    0.6680   -0.0053 C   0  0  0  0  0  0  0  0  0  0  0  0
    5.3931   -0.9897   -2.3467 C   0  0  0  0  0  0  0  0  0  0  0  0
    0.9269   -0.5245    0.2307 C   0  0  0  0  0  0  0  0  0  0  0  0
    0.9061    1.8404   -0.2791 C   0  0  0  0  0  0  0  0  0  0  0  0
   -0.4691   -0.5355    0.1905 C   0  0  0  0  0  0  0  0  0  0  0  0
   -0.4884    1.8253   -0.3181 C   0  0  0  0  0  0  0  0  0  0  0  0
   -1.1758    0.6344   -0.0828 C   0  0  0  0  0  0  0  0  0  0  0  0
   -1.2192   -1.7766    0.4364 C   0  0  0  0  0  0  0  0  0  0  0  0
   -3.2559   -0.4883    0.0891 C   0  0  0  0  0  0  0  0  0  0  0  0
   -2.6910   -1.6737    0.3678 C   0  0  0  0  0  0  0  0  0  0  0  0
   -4.7217   -0.3234    0.0170 C   0  0  0  0  0  0  0  0  0  0  0  0
   -5.4616   -1.0596   -0.9085 C   0  0  0  0  0  0  0  0  0  0  0  0
   -5.3662    0.5692    0.8734 C   0  0  0  0  0  0  0  0  0  0  0  0
   -6.8458   -0.9029   -0.9778 C   0  0  0  0  0  0  0  0  0  0  0  0
   -6.7505    0.7261    0.8041 C   0  0  0  0  0  0  0  0  0  0  0  0
   -7.4902   -0.0100   -0.1215 C   0  0  0  0  0  0  0  0  0  0  0  0
    3.2721   -0.7137    1.7423 H   0  0  0  0  0  0  0  0  0  0  0  0
    5.6703    1.1109    1.3876 H   0  0  0  0  0  0  0  0  0  0  0  0
    3.4891    1.7091   -0.1703 H   0  0  0  0  0  0  0  0  0  0  0  0
    5.4210   -1.7370    0.2845 H   0  0  0  0  0  0  0  0  0  0  0  0
    5.3490    0.8907   -1.3333 H   0  0  0  0  0  0  0  0  0  0  0  0
    5.0333   -2.0171   -2.2263 H   0  0  0  0  0  0  0  0  0  0  0  0
    6.4737   -1.0024   -2.5177 H   0  0  0  0  0  0  0  0  0  0  0  0
    3.6812    2.0640    2.1187 H   0  0  0  0  0  0  0  0  0  0  0  0
    5.2476   -1.4453    2.5469 H   0  0  0  0  0  0  0  0  0  0  0  0
    7.3148    0.3543   -0.0939 H   0  0  0  0  0  0  0  0  0  0  0  0
    5.0011   -0.9999   -4.2466 H   0  0  0  0  0  0  0  0  0  0  0  0
    1.0613   -2.4092    0.6435 H   0  0  0  0  0  0  0  0  0  0  0  0
    1.0237    3.5989   -1.0445 H   0  0  0  0  0  0  0  0  0  0  0  0
   -3.2680   -2.5734    0.5507 H   0  0  0  0  0  0  0  0  0  0  0  0
   -0.6274    3.7409   -0.3498 H   0  0  0  0  0  0  0  0  0  0  0  0
   -4.9769   -1.7565   -1.5880 H   0  0  0  0  0  0  0  0  0  0  0  0
   -4.8045    1.1491    1.6018 H   0  0  0  0  0  0  0  0  0  0  0  0
   -7.4167   -1.4780   -1.7016 H   0  0  0  0  0  0  0  0  0  0  0  0
   -7.2407    1.4246    1.4768 H   0  0  0  0  0  0  0  0  0  0  0  0
   -9.1174    0.7993    0.4730 H   0  0  0  0  0  0  0  0  0  0  0  0
  1 14  1  0  0  0  0
  1 16  1  0  0  0  0
  2 12  1  0  0  0  0
  2 40  1  0  0  0  0
  3 13  1  0  0  0  0
  3 41  1  0  0  0  0
  4 15  1  0  0  0  0
  4 42  1  0  0  0  0
  5 18  1  0  0  0  0
  5 43  1  0  0  0  0
  6 19  1  0  0  0  0
  6 44  1  0  0  0  0
  7 20  1  0  0  0  0
  7 45  1  0  0  0  0
  8 23  1  0  0  0  0
  8 25  1  0  0  0  0
  9 22  1  0  0  0  0
  9 47  1  0  0  0  0
 10 24  2  0  0  0  0
 11 32  1  0  0  0  0
 11 52  1  0  0  0  0
 12 13  1  0  0  0  0
 12 14  1  0  0  0  0
 12 33  1  0  0  0  0
 13 15  1  0  0  0  0
 13 34  1  0  0  0  0
 14 17  1  0  0  0  0
 14 35  1  0  0  0  0
 15 16  1  0  0  0  0
 15 36  1  0  0  0  0
 16 18  1  0  0  0  0
 16 37  1  0  0  0  0
 17 19  1  0  0  0  0
 17 20  2  0  0  0  0
 18 38  1  0  0  0  0
 18 39  1  0  0  0  0
 19 21  2  0  0  0  0
 20 22  1  0  0  0  0
 21 23  1  0  0  0  0
 21 24  1  0  0  0  0
 22 23  2  0  0  0  0
 24 26  1  0  0  0  0
 25 26  2  0  0  0  0
 25 27  1  0  0  0  0
 26 46  1  0  0  0  0
 27 28  2  0  0  0  0
 27 29  1  0  0  0  0
 28 30  1  0  0  0  0
 28 48  1  0  0  0  0
 29 31  2  0  0  0  0
 29 49  1  0  0  0  0
 30 32  2  0  0  0  0
 30 50  1  0  0  0  0
 31 32  1  0  0  0  0
 31 51  1  0  0  0  0
M  END
> <PUBCHEM_COMPOUND_CID>
70697812

> <PUBCHEM_CONFORMER_RMSD>
0.8

> <PUBCHEM_CONFORMER_DIVERSEORDER>
2
7
11
9
10
6
4
3
8
5
1

> <PUBCHEM_MMFF94_PARTIAL_CHARGES>
45
1 -0.56
10 -0.57
11 -0.53
12 0.28
13 0.28
14 0.42
15 0.28
16 0.28
17 -0.14
18 0.28
19 0.08
2 -0.68
20 0.08
21 0.09
22 0.08
23 0.08
24 0.47
25 0.05
26 -0.14
27 0.03
28 -0.15
29 -0.15
3 -0.68
30 -0.15
31 -0.15
32 0.08
4 -0.68
40 0.4
41 0.4
42 0.4
43 0.4
44 0.45
45 0.45
46 0.15
47 0.45
48 0.15
49 0.15
5 -0.68
50 0.15
51 0.15
52 0.45
6 -0.53
7 -0.53
8 -0.16
9 -0.53

> <PUBCHEM_EFFECTIVE_ROTOR_COUNT>
4.2

> <PUBCHEM_PHARMACOPHORE_FEATURES>
19
1 1 acceptor
1 10 acceptor
1 11 donor
1 2 acceptor
1 2 donor
1 3 acceptor
1 3 donor
1 4 acceptor
1 4 donor
1 5 acceptor
1 5 donor
1 6 donor
1 7 donor
1 8 acceptor
1 9 donor
6 1 12 13 14 15 16 rings
6 17 19 20 21 22 23 rings
6 27 28 29 30 31 32 rings
6 8 21 23 24 25 26 rings

> <PUBCHEM_HEAVY_ATOM_COUNT>
32

> <PUBCHEM_ATOM_DEF_STEREO_COUNT>
5

> <PUBCHEM_ATOM_UDEF_STEREO_COUNT>
0

> <PUBCHEM_BOND_DEF_STEREO_COUNT>
0

> <PUBCHEM_BOND_UDEF_STEREO_COUNT>
0

> <PUBCHEM_ISOTOPIC_ATOM_COUNT>
0

> <PUBCHEM_COMPONENT_COUNT>
1

> <PUBCHEM_CACTVS_TAUTO_COUNT>
104

> <PUBCHEM_CONFORMER_ID>
0436C35400000002

> <PUBCHEM_MMFF94_ENERGY>
103.3855

> <PUBCHEM_FEATURE_SELFOVERLAP>
96.48

> <PUBCHEM_SHAPE_FINGERPRINT>
102385 1 17613711523388241115
10673678 19 15575297474627354838
10906281 52 18260844678188904819
10951579 204 18056779645058942869
11181472 205 15503199091880738959
11646440 116 18342462560548624097
11963148 33 18187076282581878299
12166972 35 18273213131834832409
12236239 1 18060416950393593557
12741549 16 17632289057094369720
12788726 201 17967533432798222080
13140716 1 18190738828589962649
13533116 47 15769781238911155718
13540713 4 17974583690243879313
13617811 41 18260272927641545132
13782708 43 17704078356323326510
13862211 1 18334851723406340291
13914758 101 16845302605342923171
14068700 675 18412546504960236161
14294032 229 17971198019439733725
15131766 46 15576426741736037998
15183329 4 18334297573967554535
15475509 8 18341347603764816133
15849732 13 17704070703292679853
16728300 4 17171489148982168458
18681886 176 18130780196976429451
19319366 153 17240475919039863226
20028762 73 18343300379471096231
20157964 124 16200431390510233330
20771845 171 17458350701655456146
21033648 29 17845355799836135322
21267235 1 18334013882450173977
21307412 95 18127718026316809070
21641784 216 17677060044467860261
21781051 124 17968392224647335875
21792961 116 17458617874390349834
21814621 53 16845578599925760515
22311459 1 18334293162688066371
22956985 138 17609482840260315442
23522609 53 17387154017164879909
23536379 177 16630811002209207987
23559900 14 18340493382072343004
23569917 315 18340487859204349639
23569943 247 17914066299822350735
23576562 1 17824555286343658743
24771293 8 18270671073393191184
24893992 56 18261109708795895419
3004659 81 18187087273539240540
3044373 193 16773797038565966513
3178227 256 18114472214653521753
335352 9 18335421291904436383
3383291 50 18341333396662607467
3411729 13 18194114351617464664
4017518 198 17775009002978946502
404807 14 15908303060501327967
4073 2 17774716579687115542
4093350 32 17703788167501517720
4340502 62 15697999656234559844
5104073 3 18190743227343316929
5265222 85 15575007207989447161
57527293 21 17984956389637934938
58260988 647 16916240857826104038
59755656 215 18411703158113920111
77296 10 16415211026713855995

> <PUBCHEM_SHAPE_MULTIPOLES>
593.98
19.59
2.03
1.74
20.41
0.7
0.54
-3.41
1.4
0.05
0.21
-4.04
-0.3
0.66

> <PUBCHEM_SHAPE_SELFOVERLAP>
1312.809

> <PUBCHEM_SHAPE_VOLUME>
315

> <PUBCHEM_COORDINATE_TYPE>
2
5
10

$$$$
