71587098
  -OEChem-03052615073D

 61 64  0     1  0  0  0  0  0999 V2000
   -1.0056    2.7916    1.7409 O   0  0  0  0  0  0  0  0  0  0  0  0
   -3.4851   -3.1374    0.8412 O   0  0  0  0  0  0  0  0  0  0  0  0
    0.6262    0.0271   -0.4789 O   0  0  0  0  0  0  0  0  0  0  0  0
    5.0123   -1.3763    0.8617 O   0  0  0  0  0  0  0  0  0  0  0  0
    7.1129   -2.0356    1.4935 O   0  0  0  0  0  0  0  0  0  0  0  0
   -2.5639    0.0963   -0.5448 C   0  0  1  0  0  0  0  0  0  0  0  0
   -3.7378   -0.1316    0.4841 C   0  0  2  0  0  0  0  0  0  0  0  0
   -4.8158   -1.2063    0.0838 C   0  0  0  0  0  0  0  0  0  0  0  0
   -1.4621    0.9748    0.1903 C   0  0  2  0  0  0  0  0  0  0  0  0
   -1.9571   -1.2919   -0.9063 C   0  0  0  0  0  0  0  0  0  0  0  0
   -1.9964    2.3058    0.8132 C   0  0  1  0  0  0  0  0  0  0  0  0
   -4.3196    1.2113    0.9730 C   0  0  0  0  0  0  0  0  0  0  0  0
   -4.0958   -2.5326   -0.3037 C   0  0  1  0  0  0  0  0  0  0  0  0
   -3.2476    2.0468    1.6660 C   0  0  0  0  0  0  0  0  0  0  0  0
   -2.9890   -2.3397   -1.3372 C   0  0  0  0  0  0  0  0  0  0  0  0
   -3.0174    0.7687   -1.8640 C   0  0  0  0  0  0  0  0  0  0  0  0
   -0.1676    1.1843   -0.6220 C   0  0  0  0  0  0  0  0  0  0  0  0
   -5.7464   -1.4883    1.2957 C   0  0  0  0  0  0  0  0  0  0  0  0
   -5.7438   -0.7594   -1.0636 C   0  0  0  0  0  0  0  0  0  0  0  0
   -2.2486    3.4522   -0.1746 C   0  0  0  0  0  0  0  0  0  0  0  0
    1.9912    0.1918   -0.5223 C   0  0  0  0  0  0  0  0  0  0  0  0
    2.8202   -0.6724    0.1895 C   0  0  0  0  0  0  0  0  0  0  0  0
    2.5446    1.2261   -1.2807 C   0  0  0  0  0  0  0  0  0  0  0  0
    4.1997   -0.4860    0.1308 C   0  0  0  0  0  0  0  0  0  0  0  0
    3.9307    1.4012   -1.3304 C   0  0  0  0  0  0  0  0  0  0  0  0
    4.7691    0.5395   -0.6196 C   0  0  0  0  0  0  0  0  0  0  0  0
    6.2155    0.6761   -0.6359 C   0  0  0  0  0  0  0  0  0  0  0  0
    6.3989   -1.2650    0.8610 C   0  0  0  0  0  0  0  0  0  0  0  0
    6.9782   -0.1713    0.0593 C   0  0  0  0  0  0  0  0  0  0  0  0
   -3.2521   -0.5641    1.3750 H   0  0  0  0  0  0  0  0  0  0  0  0
   -1.1494    0.3738    1.0614 H   0  0  0  0  0  0  0  0  0  0  0  0
   -1.4093   -1.6894   -0.0418 H   0  0  0  0  0  0  0  0  0  0  0  0
   -1.2274   -1.1886   -1.7186 H   0  0  0  0  0  0  0  0  0  0  0  0
   -5.1158    1.0450    1.7052 H   0  0  0  0  0  0  0  0  0  0  0  0
   -4.7739    1.7802    0.1574 H   0  0  0  0  0  0  0  0  0  0  0  0
   -4.8290   -3.2535   -0.6862 H   0  0  0  0  0  0  0  0  0  0  0  0
   -3.6843    2.9972    2.0000 H   0  0  0  0  0  0  0  0  0  0  0  0
   -2.9511    1.5355    2.5931 H   0  0  0  0  0  0  0  0  0  0  0  0
   -3.4212   -2.0787   -2.3078 H   0  0  0  0  0  0  0  0  0  0  0  0
   -2.4584   -3.2886   -1.4886 H   0  0  0  0  0  0  0  0  0  0  0  0
   -3.8625    1.4446   -1.7238 H   0  0  0  0  0  0  0  0  0  0  0  0
   -3.3296    0.0443   -2.6198 H   0  0  0  0  0  0  0  0  0  0  0  0
   -2.2297    1.3499   -2.3457 H   0  0  0  0  0  0  0  0  0  0  0  0
   -0.3460    1.3759   -1.6815 H   0  0  0  0  0  0  0  0  0  0  0  0
    0.3578    2.0531   -0.2071 H   0  0  0  0  0  0  0  0  0  0  0  0
   -6.3651   -2.3752    1.1132 H   0  0  0  0  0  0  0  0  0  0  0  0
   -6.4339   -0.6580    1.4876 H   0  0  0  0  0  0  0  0  0  0  0  0
   -5.1742   -1.6690    2.2122 H   0  0  0  0  0  0  0  0  0  0  0  0
   -6.5518   -1.4868   -1.2104 H   0  0  0  0  0  0  0  0  0  0  0  0
   -5.2345   -0.6773   -2.0232 H   0  0  0  0  0  0  0  0  0  0  0  0
   -6.2163    0.2044   -0.8487 H   0  0  0  0  0  0  0  0  0  0  0  0
   -1.3577    3.6628   -0.7753 H   0  0  0  0  0  0  0  0  0  0  0  0
   -2.4719    4.3831    0.3611 H   0  0  0  0  0  0  0  0  0  0  0  0
   -3.0828    3.2612   -0.8499 H   0  0  0  0  0  0  0  0  0  0  0  0
   -1.3567    3.5896    2.1719 H   0  0  0  0  0  0  0  0  0  0  0  0
   -3.1232   -3.9963    0.5640 H   0  0  0  0  0  0  0  0  0  0  0  0
    2.3961   -1.4786    0.7811 H   0  0  0  0  0  0  0  0  0  0  0  0
    1.9328    1.9020   -1.8711 H   0  0  0  0  0  0  0  0  0  0  0  0
    4.3420    2.2086   -1.9312 H   0  0  0  0  0  0  0  0  0  0  0  0
    6.6626    1.4736   -1.2189 H   0  0  0  0  0  0  0  0  0  0  0  0
    8.0585   -0.0756    0.0520 H   0  0  0  0  0  0  0  0  0  0  0  0
  1 11  1  0  0  0  0
  1 55  1  0  0  0  0
  2 13  1  0  0  0  0
  2 56  1  0  0  0  0
  3 17  1  0  0  0  0
  3 21  1  0  0  0  0
  4 24  1  0  0  0  0
  4 28  1  0  0  0  0
  5 28  2  0  0  0  0
  6  7  1  0  0  0  0
  6  9  1  0  0  0  0
  6 10  1  0  0  0  0
  6 16  1  0  0  0  0
  7  8  1  0  0  0  0
  7 12  1  0  0  0  0
  7 30  1  0  0  0  0
  8 13  1  0  0  0  0
  8 18  1  0  0  0  0
  8 19  1  0  0  0  0
  9 11  1  0  0  0  0
  9 17  1  0  0  0  0
  9 31  1  0  0  0  0
 10 15  1  0  0  0  0
 10 32  1  0  0  0  0
 10 33  1  0  0  0  0
 11 14  1  0  0  0  0
 11 20  1  0  0  0  0
 12 14  1  0  0  0  0
 12 34  1  0  0  0  0
 12 35  1  0  0  0  0
 13 15  1  0  0  0  0
 13 36  1  0  0  0  0
 14 37  1  0  0  0  0
 14 38  1  0  0  0  0
 15 39  1  0  0  0  0
 15 40  1  0  0  0  0
 16 41  1  0  0  0  0
 16 42  1  0  0  0  0
 16 43  1  0  0  0  0
 17 44  1  0  0  0  0
 17 45  1  0  0  0  0
 18 46  1  0  0  0  0
 18 47  1  0  0  0  0
 18 48  1  0  0  0  0
 19 49  1  0  0  0  0
 19 50  1  0  0  0  0
 19 51  1  0  0  0  0
 20 52  1  0  0  0  0
 20 53  1  0  0  0  0
 20 54  1  0  0  0  0
 21 22  2  0  0  0  0
 21 23  1  0  0  0  0
 22 24  1  0  0  0  0
 22 57  1  0  0  0  0
 23 25  2  0  0  0  0
 23 58  1  0  0  0  0
 24 26  2  0  0  0  0
 25 26  1  0  0  0  0
 25 59  1  0  0  0  0
 26 27  1  0  0  0  0
 27 29  2  0  0  0  0
 27 60  1  0  0  0  0
 28 29  1  0  0  0  0
 29 61  1  0  0  0  0
M  END
> <PUBCHEM_COMPOUND_CID>
71587098

> <PUBCHEM_CONFORMER_RMSD>
0.8

> <PUBCHEM_CONFORMER_DIVERSEORDER>
7
22
2
34
13
37
33
18
32
42
10
12
8
31
36
44
16
25
23
46
30
28
45
19
11
21
38
24
1
20
4
27
40
39
15
43
41
3
35
29
6
26
14
5
17
9

> <PUBCHEM_MMFF94_PARTIAL_CHARGES>
24
1 -0.68
11 0.28
13 0.28
17 0.28
2 -0.68
21 0.08
22 -0.15
23 -0.15
24 0.08
25 -0.15
26 0.03
27 -0.18
28 0.71
29 -0.14
3 -0.36
4 -0.23
5 -0.57
55 0.4
56 0.4
57 0.15
58 0.15
59 0.15
60 0.15
61 0.15

> <PUBCHEM_EFFECTIVE_ROTOR_COUNT>
4.6

> <PUBCHEM_PHARMACOPHORE_FEATURES>
11
1 1 acceptor
1 1 donor
1 2 acceptor
1 2 donor
1 3 acceptor
1 5 acceptor
3 8 18 19 hydrophobe
6 21 22 23 24 25 26 rings
6 4 24 26 27 28 29 rings
6 6 7 8 10 13 15 rings
6 6 7 9 11 12 14 rings

> <PUBCHEM_HEAVY_ATOM_COUNT>
29

> <PUBCHEM_ATOM_DEF_STEREO_COUNT>
5

> <PUBCHEM_ATOM_UDEF_STEREO_COUNT>
0

> <PUBCHEM_BOND_DEF_STEREO_COUNT>
0

> <PUBCHEM_BOND_UDEF_STEREO_COUNT>
0

> <PUBCHEM_ISOTOPIC_ATOM_COUNT>
0

> <PUBCHEM_COMPONENT_COUNT>
1

> <PUBCHEM_CACTVS_TAUTO_COUNT>
1

> <PUBCHEM_CONFORMER_ID>
0444551A00000007

> <PUBCHEM_MMFF94_ENERGY>
128.1357

> <PUBCHEM_FEATURE_SELFOVERLAP>
55.863

> <PUBCHEM_SHAPE_FINGERPRINT>
10 15 17274815875114999112
10319926 262 18060132116483542952
11045515 52 17968095365240306397
11315181 36 18410013260001840221
12107183 9 17760928442461509170
12166972 35 18113339747473268780
12236239 1 18334577940969413820
12596602 18 18408603656726631728
12616971 3 17968104114056461188
12760667 363 18411979191646511767
12788726 201 18342185482911347267
13533116 47 18260550069666329012
13583140 156 17489009471658063580
13782708 43 16008744698251013930
14844126 61 18272366490680398163
14849402 71 18339363093611757496
14856354 85 18272654584011808390
15183329 4 18113335319683752490
15188451 53 18411129226155501864
15250474 111 18408040697930347298
15320294 125 18411136943837973183
15788980 27 17385725768887317436
15799311 1 17894644651483903014
16114785 44 15482117051297775721
17349148 13 18040156223489593684
17780758 139 18413386523031518867
17857418 61 18334858329213799566
17913733 40 15985108483735156198
18927931 339 18131634499613742351
19377110 9 18410576214988830464
20028762 73 18261388928398610162
20511986 3 18334003982635147552
21033648 29 15984836912836699113
21585481 151 18124026833851909218
22061861 79 15791731897727537866
23522609 53 18044124335385699820
23559900 14 18264481961432684009
25147074 1 18262250988247688028
3004659 81 18040427836704519094
3383291 50 18130790096871369719
3504750 166 18341320099169214662
3663271 9 18412544293779332344
392239 28 18131356344615050961
397830 11 17917134075556081624
4015057 19 16660656205710382004
439807 62 18260834847230115563
4409770 3 18410568449909733125
469060 322 17845392031874009817
497634 4 18260266339235676620
504579 68 18187659024323666076
5104073 3 18343017801088652384
531348 171 17459177495897006972
5326457 24 18334573495857935490
559249 180 18335417946420207815
999808 66 17313395569144046179

> <PUBCHEM_SHAPE_MULTIPOLES>
567.46
17.1
3.03
1.49
26.33
0.56
0.04
-8.85
3.33
-3.48
0.77
-0.54
0.2
-2.28

> <PUBCHEM_SHAPE_SELFOVERLAP>
1212.83

> <PUBCHEM_SHAPE_VOLUME>
312.2

> <PUBCHEM_COORDINATE_TYPE>
2
5
10

$$$$
