73102629
  -OEChem-03052615083D

 39 40  0     1  0  0  0  0  0999 V2000
   -0.3390    0.7283   -0.9003 C   0  0  1  0  0  0  0  0  0  0  0  0
    1.4025   -0.3807    0.6378 C   0  0  2  0  0  0  0  0  0  0  0  0
    0.0779    2.1319   -0.3857 C   0  0  2  0  0  0  0  0  0  0  0  0
   -0.0353   -0.3151    0.1618 C   0  0  0  0  0  0  0  0  0  0  0  0
    1.8824    1.0187    1.0621 C   0  0  0  0  0  0  0  0  0  0  0  0
    1.5620    2.1136    0.0381 C   0  0  0  0  0  0  0  0  0  0  0  0
    2.3196   -1.0026   -0.4193 C   0  0  0  0  0  0  0  0  0  0  0  0
   -1.7845    0.6888   -1.4560 C   0  0  0  0  0  0  0  0  0  0  0  0
   -0.8067    2.6610    0.7526 C   0  0  0  0  0  0  0  0  0  0  0  0
   -0.9976   -1.0828    0.7014 C   0  0  0  0  0  0  0  0  0  0  0  0
   -2.7566   -0.1486   -0.6784 C   0  0  0  0  0  0  0  0  0  0  0  0
   -2.3890   -0.9696    0.3178 C   0  0  0  0  0  0  0  0  0  0  0  0
    3.6221   -1.4767    0.2180 C   0  0  0  0  0  0  0  0  0  0  0  0
    1.6128   -2.1552   -1.1259 C   0  0  0  0  0  0  0  0  0  0  0  0
   -3.3706   -1.8111    1.0759 C   0  0  0  0  0  0  0  0  0  0  0  0
    0.3086    0.5167   -1.7633 H   0  0  0  0  0  0  0  0  0  0  0  0
    1.4437   -1.0144    1.5357 H   0  0  0  0  0  0  0  0  0  0  0  0
   -0.0133    2.8419   -1.2190 H   0  0  0  0  0  0  0  0  0  0  0  0
    2.9563    1.0284    1.2736 H   0  0  0  0  0  0  0  0  0  0  0  0
    1.3974    1.2792    2.0122 H   0  0  0  0  0  0  0  0  0  0  0  0
    1.8448    3.0892    0.4520 H   0  0  0  0  0  0  0  0  0  0  0  0
    2.1851    1.9708   -0.8531 H   0  0  0  0  0  0  0  0  0  0  0  0
    2.5793   -0.2645   -1.1879 H   0  0  0  0  0  0  0  0  0  0  0  0
   -1.7522    0.2782   -2.4744 H   0  0  0  0  0  0  0  0  0  0  0  0
   -2.1884    1.7018   -1.5645 H   0  0  0  0  0  0  0  0  0  0  0  0
   -0.8161    1.9939    1.6195 H   0  0  0  0  0  0  0  0  0  0  0  0
   -1.8417    2.7931    0.4236 H   0  0  0  0  0  0  0  0  0  0  0  0
   -0.4494    3.6400    1.0903 H   0  0  0  0  0  0  0  0  0  0  0  0
   -0.7530   -1.8033    1.4769 H   0  0  0  0  0  0  0  0  0  0  0  0
   -3.8017   -0.0806   -0.9686 H   0  0  0  0  0  0  0  0  0  0  0  0
    4.2680   -1.9461   -0.5324 H   0  0  0  0  0  0  0  0  0  0  0  0
    3.4372   -2.2177    1.0034 H   0  0  0  0  0  0  0  0  0  0  0  0
    4.1904   -0.6515    0.6558 H   0  0  0  0  0  0  0  0  0  0  0  0
    0.7855   -1.8269   -1.7619 H   0  0  0  0  0  0  0  0  0  0  0  0
    2.3136   -2.6737   -1.7911 H   0  0  0  0  0  0  0  0  0  0  0  0
    1.2395   -2.8997   -0.4137 H   0  0  0  0  0  0  0  0  0  0  0  0
   -3.3513   -1.5589    2.1417 H   0  0  0  0  0  0  0  0  0  0  0  0
   -3.1322   -2.8746    0.9661 H   0  0  0  0  0  0  0  0  0  0  0  0
   -4.3962   -1.6641    0.7204 H   0  0  0  0  0  0  0  0  0  0  0  0
  1  3  1  0  0  0  0
  1  4  1  0  0  0  0
  1  8  1  0  0  0  0
  1 16  1  0  0  0  0
  2  4  1  0  0  0  0
  2  5  1  0  0  0  0
  2  7  1  0  0  0  0
  2 17  1  0  0  0  0
  3  6  1  0  0  0  0
  3  9  1  0  0  0  0
  3 18  1  0  0  0  0
  4 10  2  0  0  0  0
  5  6  1  0  0  0  0
  5 19  1  0  0  0  0
  5 20  1  0  0  0  0
  6 21  1  0  0  0  0
  6 22  1  0  0  0  0
  7 13  1  0  0  0  0
  7 14  1  0  0  0  0
  7 23  1  0  0  0  0
  8 11  1  0  0  0  0
  8 24  1  0  0  0  0
  8 25  1  0  0  0  0
  9 26  1  0  0  0  0
  9 27  1  0  0  0  0
  9 28  1  0  0  0  0
 10 12  1  0  0  0  0
 10 29  1  0  0  0  0
 11 12  2  0  0  0  0
 11 30  1  0  0  0  0
 12 15  1  0  0  0  0
 13 31  1  0  0  0  0
 13 32  1  0  0  0  0
 13 33  1  0  0  0  0
 14 34  1  0  0  0  0
 14 35  1  0  0  0  0
 14 36  1  0  0  0  0
 15 37  1  0  0  0  0
 15 38  1  0  0  0  0
 15 39  1  0  0  0  0
M  END
> <PUBCHEM_COMPOUND_CID>
73102629

> <PUBCHEM_CONFORMER_RMSD>
0.6

> <PUBCHEM_CONFORMER_DIVERSEORDER>
1
9
2
14
11
10
7
5
8
4
12
3
6
13

> <PUBCHEM_MMFF94_PARTIAL_CHARGES>
10
1 0.14
10 -0.15
11 -0.29
12 -0.14
15 0.14
2 0.14
29 0.15
30 0.15
4 -0.28
8 0.14

> <PUBCHEM_EFFECTIVE_ROTOR_COUNT>
2

> <PUBCHEM_PHARMACOPHORE_FEATURES>
3
3 7 13 14 hydrophobe
6 1 2 3 4 5 6 rings
6 1 4 8 10 11 12 rings

> <PUBCHEM_HEAVY_ATOM_COUNT>
15

> <PUBCHEM_ATOM_DEF_STEREO_COUNT>
0

> <PUBCHEM_ATOM_UDEF_STEREO_COUNT>
3

> <PUBCHEM_BOND_DEF_STEREO_COUNT>
0

> <PUBCHEM_BOND_UDEF_STEREO_COUNT>
0

> <PUBCHEM_ISOTOPIC_ATOM_COUNT>
0

> <PUBCHEM_COMPONENT_COUNT>
1

> <PUBCHEM_CACTVS_TAUTO_COUNT>
1

> <PUBCHEM_CONFORMER_ID>
045B752500000001

> <PUBCHEM_MMFF94_ENERGY>
31.9215

> <PUBCHEM_FEATURE_SELFOVERLAP>
15.251

> <PUBCHEM_SHAPE_FINGERPRINT>
1 1 17834118923737912044
12138202 78 18411975892826668096
12423570 1 17975679899062910040
12524768 44 18339346535314332279
12532896 13 17546727054067326564
14115302 16 17896040936086203974
14252887 29 17680158657556131507
14761567 1 17825929451991523647
14817 1 16159559283130515029
15001771 113 18408610240225862817
15219456 202 18335977670325694982
15501101 241 18045225083599195467
161256 15 18115027544707212007
16945 1 18131345298027867014
17990270 104 18262510528198338697
20201158 50 18338789022847913422
20511035 2 16817148819343902785
20588541 1 17899981826294087233
20645477 70 18119519088942320015
20711983 138 18337949000348573219
20871998 22 18334295413271989571
21041028 32 18341060665732116809
21061003 4 18272092669034624526
21501502 16 18340491054379455568
22721475 48 18339642243934104670
22802520 49 17840025139657245550
23402539 116 18194944263277427878
23419403 2 18188753042224079020
23526113 38 18192403416639030557
23557571 272 18336555915043234126
23559900 14 18046049481704053210
2748010 2 18335966653729520509
4663303 62 18267580384867103125
576247 118 18269578068703918662
7364860 26 18123200261965656699
81228 2 18123472674376834536
8809292 202 18262513689262698027

> <PUBCHEM_SHAPE_MULTIPOLES>
308.69
4.53
2.72
1.21
0.18
1.15
0.14
-3.11
-0.54
-0.4
-0.22
0.34
-0.06
0.91

> <PUBCHEM_SHAPE_SELFOVERLAP>
631.395

> <PUBCHEM_SHAPE_VOLUME>
175.9

> <PUBCHEM_COORDINATE_TYPE>
2
5
10

$$$$
