73404
  -OEChem-03052615073D

 43 46  0     1  0  0  0  0  0999 V2000
   -4.0574    1.5261   -0.6316 O   0  0  0  0  0  0  0  0  0  0  0  0
    2.6257    2.5306   -0.2094 O   0  0  0  0  0  0  0  0  0  0  0  0
   -0.9680   -0.2709   -0.6377 N   0  0  1  0  0  0  0  0  0  0  0  0
    1.6738    0.5056    0.4277 N   0  0  0  0  0  0  0  0  0  0  0  0
   -0.4909    0.4328    1.7241 C   0  0  1  0  0  0  0  0  0  0  0  0
    0.4624   -1.6720    0.8587 C   0  0  2  0  0  0  0  0  0  0  0  0
   -1.4674    0.5037    0.5152 C   0  0  2  0  0  0  0  0  0  0  0  0
   -0.1619   -1.0150    2.0917 C   0  0  0  0  0  0  0  0  0  0  0  0
    1.8090   -0.9632    0.5344 C   0  0  1  0  0  0  0  0  0  0  0  0
   -0.5760   -1.6405   -0.2861 C   0  0  0  0  0  0  0  0  0  0  0  0
    0.8277    1.1689    1.4275 C   0  0  0  0  0  0  0  0  0  0  0  0
   -2.9045    0.1000    0.9214 C   0  0  0  0  0  0  0  0  0  0  0  0
    2.5092   -1.5910   -0.6726 C   0  0  0  0  0  0  0  0  0  0  0  0
   -1.8851   -0.2164   -1.7802 C   0  0  0  0  0  0  0  0  0  0  0  0
   -3.8709    0.1618   -0.2615 C   0  0  2  0  0  0  0  0  0  0  0  0
   -3.3223   -0.6277   -1.4477 C   0  0  0  0  0  0  0  0  0  0  0  0
    3.7902   -0.8308   -0.9575 C   0  0  0  0  0  0  0  0  0  0  0  0
    2.5676    1.3007   -0.2975 C   0  0  0  0  0  0  0  0  0  0  0  0
    3.4388    0.5973   -1.3191 C   0  0  0  0  0  0  0  0  0  0  0  0
   -0.9612    0.9228    2.5861 H   0  0  0  0  0  0  0  0  0  0  0  0
    0.6753   -2.7233    1.0923 H   0  0  0  0  0  0  0  0  0  0  0  0
   -1.5064    1.5575    0.2050 H   0  0  0  0  0  0  0  0  0  0  0  0
    0.5329   -1.0492    2.9401 H   0  0  0  0  0  0  0  0  0  0  0  0
   -1.0598   -1.5582    2.4054 H   0  0  0  0  0  0  0  0  0  0  0  0
    2.4693   -1.1115    1.4018 H   0  0  0  0  0  0  0  0  0  0  0  0
   -0.1636   -2.1477   -1.1650 H   0  0  0  0  0  0  0  0  0  0  0  0
   -1.4482   -2.2332    0.0175 H   0  0  0  0  0  0  0  0  0  0  0  0
    0.6203    2.1988    1.1148 H   0  0  0  0  0  0  0  0  0  0  0  0
    1.4280    1.2355    2.3440 H   0  0  0  0  0  0  0  0  0  0  0  0
   -2.9237   -0.9130    1.3379 H   0  0  0  0  0  0  0  0  0  0  0  0
   -3.2515    0.7809    1.7088 H   0  0  0  0  0  0  0  0  0  0  0  0
    1.8776   -1.5567   -1.5668 H   0  0  0  0  0  0  0  0  0  0  0  0
    2.7348   -2.6443   -0.4711 H   0  0  0  0  0  0  0  0  0  0  0  0
   -1.5053   -0.8352   -2.6025 H   0  0  0  0  0  0  0  0  0  0  0  0
   -1.8874    0.8098   -2.1698 H   0  0  0  0  0  0  0  0  0  0  0  0
   -4.8480   -0.2326    0.0374 H   0  0  0  0  0  0  0  0  0  0  0  0
   -3.9473   -0.4573   -2.3323 H   0  0  0  0  0  0  0  0  0  0  0  0
   -3.3612   -1.7005   -1.2251 H   0  0  0  0  0  0  0  0  0  0  0  0
    4.3324   -1.3019   -1.7847 H   0  0  0  0  0  0  0  0  0  0  0  0
    4.4477   -0.8519   -0.0802 H   0  0  0  0  0  0  0  0  0  0  0  0
    2.9045    0.6260   -2.2764 H   0  0  0  0  0  0  0  0  0  0  0  0
    4.3624    1.1752   -1.4384 H   0  0  0  0  0  0  0  0  0  0  0  0
   -4.6798    1.5445   -1.3784 H   0  0  0  0  0  0  0  0  0  0  0  0
  1 15  1  0  0  0  0
  1 43  1  0  0  0  0
  2 18  2  0  0  0  0
  3  7  1  0  0  0  0
  3 10  1  0  0  0  0
  3 14  1  0  0  0  0
  4  9  1  0  0  0  0
  4 11  1  0  0  0  0
  4 18  1  0  0  0  0
  5  7  1  0  0  0  0
  5  8  1  0  0  0  0
  5 11  1  0  0  0  0
  5 20  1  0  0  0  0
  6  8  1  0  0  0  0
  6  9  1  0  0  0  0
  6 10  1  0  0  0  0
  6 21  1  0  0  0  0
  7 12  1  0  0  0  0
  7 22  1  0  0  0  0
  8 23  1  0  0  0  0
  8 24  1  0  0  0  0
  9 13  1  0  0  0  0
  9 25  1  0  0  0  0
 10 26  1  0  0  0  0
 10 27  1  0  0  0  0
 11 28  1  0  0  0  0
 11 29  1  0  0  0  0
 12 15  1  0  0  0  0
 12 30  1  0  0  0  0
 12 31  1  0  0  0  0
 13 17  1  0  0  0  0
 13 32  1  0  0  0  0
 13 33  1  0  0  0  0
 14 16  1  0  0  0  0
 14 34  1  0  0  0  0
 14 35  1  0  0  0  0
 15 16  1  0  0  0  0
 15 36  1  0  0  0  0
 16 37  1  0  0  0  0
 16 38  1  0  0  0  0
 17 19  1  0  0  0  0
 17 39  1  0  0  0  0
 17 40  1  0  0  0  0
 18 19  1  0  0  0  0
 19 41  1  0  0  0  0
 19 42  1  0  0  0  0
M  END
> <PUBCHEM_COMPOUND_CID>
73404

> <PUBCHEM_CONFORMER_RMSD>
0.6

> <PUBCHEM_CONFORMER_DIVERSEORDER>
1

> <PUBCHEM_MMFF94_PARTIAL_CHARGES>
13
1 -0.68
10 0.27
11 0.3
14 0.27
15 0.28
18 0.57
19 0.06
2 -0.57
3 -0.81
4 -0.66
43 0.4
7 0.27
9 0.3

> <PUBCHEM_EFFECTIVE_ROTOR_COUNT>
2

> <PUBCHEM_PHARMACOPHORE_FEATURES>
8
1 1 acceptor
1 1 donor
1 2 acceptor
1 3 cation
6 3 5 6 7 8 10 rings
6 3 7 12 14 15 16 rings
6 4 5 6 8 9 11 rings
6 4 9 13 17 18 19 rings

> <PUBCHEM_HEAVY_ATOM_COUNT>
19

> <PUBCHEM_ATOM_DEF_STEREO_COUNT>
5

> <PUBCHEM_ATOM_UDEF_STEREO_COUNT>
0

> <PUBCHEM_BOND_DEF_STEREO_COUNT>
0

> <PUBCHEM_BOND_UDEF_STEREO_COUNT>
0

> <PUBCHEM_ISOTOPIC_ATOM_COUNT>
0

> <PUBCHEM_COMPONENT_COUNT>
1

> <PUBCHEM_CACTVS_TAUTO_COUNT>
1

> <PUBCHEM_CONFORMER_ID>
00011EBC00000001

> <PUBCHEM_MMFF94_ENERGY>
35.9088

> <PUBCHEM_FEATURE_SELFOVERLAP>
42.3

> <PUBCHEM_SHAPE_FINGERPRINT>
10062212 137 17489032561027869479
10465860 71 16845576426081107573
10498660 4 16370721535100861847
10618630 7 13686305659915686982
10863032 1 18334862761219343174
10948715 1 17894636988591716792
11221954 11 16954233627214571116
11471102 22 10015589372172581730
11543360 7 18412259575580080007
12251169 10 11169911701590007180
12363563 72 14477241561137883671
12633257 1 11603910866754751005
12892183 10 8214138555988377607
13134695 92 17244947533834471426
13764800 53 16008755726940974692
14115302 16 17203609272152517950
14289901 80 14707200011772729929
14787075 74 11752068001418930034
15775835 57 14129062521237281004
16752209 62 16987716788748300249
16945 1 18335700507575569946
17834072 14 14045741504267288342
18186145 218 18334858324549502099
18981168 100 16950829379973716102
192875 21 18342181034000409896
19422 9 17989209252562527135
19862831 5 18201719543942449727
20645476 183 18201434762178979895
21524375 3 17313377950459878970
22112679 90 16844750658647139632
22802520 49 17702096074508344083
23227448 37 16155418582448318822
23382010 3 18340483477592843939
23402539 116 18200595766356489590
23419403 2 17972633066385098410
23557571 272 16660944239418060579
23559900 14 15051460341272586734
25 1 18040720242626121154
2748010 2 16473161130379140011
276578 36 15285357306122481504
296302 2 11674878905326349327
3082319 5 17989488545284343020
3286 77 17749662996140937978
3323516 105 18341054132965572555
3797600 57 13768219280337717292
427121 178 15430324564186366305
458136 41 16805888364513496747
549884 4 17989198282894273921
633830 44 18186520990648940949
6442390 28 17095818684410368811
7364860 26 15840402960382385338
74978 22 16916490554265392175
81228 2 13397816902726669586
9981440 41 17624400275470323184

> <PUBCHEM_SHAPE_MULTIPOLES>
369.31
6.37
1.8
1.75
1.62
0.22
-0.39
-0.24
3.58
-0.79
0.16
0.07
0.08
-0.65

> <PUBCHEM_SHAPE_SELFOVERLAP>
786.435

> <PUBCHEM_SHAPE_VOLUME>
197.9

> <PUBCHEM_COORDINATE_TYPE>
2
5
10

$$$$
