75438
  -OEChem-03052615013D

 19 20  0     0  0  0  0  0  0999 V2000
    1.2118    3.7329    0.0438 Cl  0  0  0  0  0  0  0  0  0  0  0  0
    2.5924   -2.0841    1.3435 Cl  0  0  0  0  0  0  0  0  0  0  0  0
    2.3079   -1.7654   -1.2475 O   0  0  0  0  0  0  0  0  0  0  0  0
   -0.6883    1.9717    0.0515 N   0  0  0  0  0  0  0  0  0  0  0  0
   -0.3782   -0.4167   -0.0312 C   0  0  0  0  0  0  0  0  0  0  0  0
   -1.2016    0.7270    0.0288 C   0  0  0  0  0  0  0  0  0  0  0  0
    1.0101   -0.2290   -0.0677 C   0  0  0  0  0  0  0  0  0  0  0  0
   -0.9480   -1.7010   -0.0532 C   0  0  0  0  0  0  0  0  0  0  0  0
   -2.5806    0.5400    0.0651 C   0  0  0  0  0  0  0  0  0  0  0  0
    1.5420    1.0522   -0.0445 C   0  0  0  0  0  0  0  0  0  0  0  0
   -2.3304   -1.8589   -0.0160 C   0  0  0  0  0  0  0  0  0  0  0  0
   -3.1474   -0.7368    0.0432 C   0  0  0  0  0  0  0  0  0  0  0  0
    0.6569    2.1095    0.0148 C   0  0  0  0  0  0  0  0  0  0  0  0
    1.9534   -1.3415   -0.1305 C   0  0  0  0  0  0  0  0  0  0  0  0
   -0.3350   -2.5976   -0.1010 H   0  0  0  0  0  0  0  0  0  0  0  0
   -3.2425    1.4030    0.1117 H   0  0  0  0  0  0  0  0  0  0  0  0
    2.6146    1.2170   -0.0728 H   0  0  0  0  0  0  0  0  0  0  0  0
   -2.7674   -2.8527   -0.0336 H   0  0  0  0  0  0  0  0  0  0  0  0
   -4.2271   -0.8506    0.0724 H   0  0  0  0  0  0  0  0  0  0  0  0
  1 13  1  0  0  0  0
  2 14  1  0  0  0  0
  3 14  2  0  0  0  0
  4  6  1  0  0  0  0
  4 13  2  0  0  0  0
  5  6  1  0  0  0  0
  5  7  1  0  0  0  0
  5  8  2  0  0  0  0
  6  9  2  0  0  0  0
  7 10  2  0  0  0  0
  7 14  1  0  0  0  0
  8 11  1  0  0  0  0
  8 15  1  0  0  0  0
  9 12  1  0  0  0  0
  9 16  1  0  0  0  0
 10 13  1  0  0  0  0
 10 17  1  0  0  0  0
 11 12  2  0  0  0  0
 11 18  1  0  0  0  0
 12 19  1  0  0  0  0
M  END
> <PUBCHEM_COMPOUND_CID>
75438

> <PUBCHEM_CONFORMER_RMSD>
0.4

> <PUBCHEM_CONFORMER_DIVERSEORDER>
1
3
4
2
5
6

> <PUBCHEM_MMFF94_PARTIAL_CHARGES>
18
1 -0.18
10 -0.15
11 -0.15
12 -0.15
13 0.49
14 0.69
15 0.15
16 0.15
17 0.15
18 0.15
19 0.15
2 -0.21
3 -0.57
4 -0.62
6 0.31
7 0.09
8 -0.15
9 -0.15

> <PUBCHEM_EFFECTIVE_ROTOR_COUNT>
1

> <PUBCHEM_PHARMACOPHORE_FEATURES>
3
1 4 acceptor
6 4 5 6 7 10 13 rings
6 5 6 8 9 11 12 rings

> <PUBCHEM_HEAVY_ATOM_COUNT>
14

> <PUBCHEM_ATOM_DEF_STEREO_COUNT>
0

> <PUBCHEM_ATOM_UDEF_STEREO_COUNT>
0

> <PUBCHEM_BOND_DEF_STEREO_COUNT>
0

> <PUBCHEM_BOND_UDEF_STEREO_COUNT>
0

> <PUBCHEM_ISOTOPIC_ATOM_COUNT>
0

> <PUBCHEM_COMPONENT_COUNT>
1

> <PUBCHEM_CACTVS_TAUTO_COUNT>
1

> <PUBCHEM_CONFORMER_ID>
000126AE00000001

> <PUBCHEM_MMFF94_ENERGY>
44.6819

> <PUBCHEM_FEATURE_SELFOVERLAP>
15.254

> <PUBCHEM_SHAPE_FINGERPRINT>
1 1 18050567648921130924
10967382 1 18411139142749717629
11578080 2 17386543796684711116
12423570 1 8175155285189265183
12524768 44 18342458140436555623
13140716 1 18194402182380356265
13380535 76 17761208113140420427
14022347 108 18050029712973396323
14648413 74 18338519754389479185
14790565 3 17620498821478629520
14817 1 10787332877051683498
15309172 13 17473270250116091097
16945 1 18267306610998804325
17990270 104 18341615957479332703
193761 8 18411420639407447789
20510252 161 17694212275673953120
20645477 70 18196650929137231047
20711985 344 17979369555343800630
20871998 184 18055058870621793182
21501502 16 18268710687642899351
21524375 3 17619908795755098160
21650355 55 18119506770580158250
22344851 341 18123192573747363241
2334 1 18410856516769627649
23388829 49 17911210017746845338
23402539 116 17909805683747552247
23419403 2 17408184405869890585
23552423 10 18264489666540365287
241688 4 18267589004871689313
257057 1 18336529539305911586
2748010 2 18339636724853844909
305870 269 17904473352747484497
43471831 8 17760360389506645720
7364860 26 18270123555304347076
81228 2 17981326690130299096
90316 7 18120640354082915824

> <PUBCHEM_SHAPE_MULTIPOLES>
281
3.95
3.54
0.83
2.57
0.96
-0.03
-0.3
-0.2
-3.41
-0.36
-0.41
-0.54
-0.19

> <PUBCHEM_SHAPE_SELFOVERLAP>
597.263

> <PUBCHEM_SHAPE_VOLUME>
157.5

> <PUBCHEM_COORDINATE_TYPE>
2
5
10

$$$$
