76242
  -OEChem-03052615083D

 15 14  0     0  0  0  0  0  0999 V2000
   -0.0425   -1.0603   -0.0008 S   0  0  0  0  0  0  0  0  0  0  0  0
    1.6694    0.1467    0.0001 S   0  0  0  0  0  0  0  0  0  0  0  0
    2.9064   -0.9148   -0.0008 O   0  0  0  0  0  0  0  0  0  0  0  0
    1.6956    0.8636   -1.2604 O   0  0  0  0  0  0  0  0  0  0  0  0
    1.6957    0.8613    1.2618 O   0  0  0  0  0  0  0  0  0  0  0  0
   -3.8054    0.4662    0.0001 N   0  0  0  0  0  0  0  0  0  0  0  0
   -1.3818    0.1665    0.0002 C   0  0  0  0  0  0  0  0  0  0  0  0
   -2.7374   -0.5291   -0.0002 C   0  0  0  0  0  0  0  0  0  0  0  0
   -1.2731    0.7999    0.8872 H   0  0  0  0  0  0  0  0  0  0  0  0
   -1.2750    0.8020   -0.8856 H   0  0  0  0  0  0  0  0  0  0  0  0
   -2.8481   -1.1597   -0.8894 H   0  0  0  0  0  0  0  0  0  0  0  0
   -2.8473   -1.1679    0.8836 H   0  0  0  0  0  0  0  0  0  0  0  0
   -3.7377    1.0420    0.8385 H   0  0  0  0  0  0  0  0  0  0  0  0
   -4.7070   -0.0063    0.0504 H   0  0  0  0  0  0  0  0  0  0  0  0
    2.9219   -1.5453    0.7570 H   0  0  0  0  0  0  0  0  0  0  0  0
  1  2  1  0  0  0  0
  1  7  1  0  0  0  0
  2  3  1  0  0  0  0
  2  4  2  0  0  0  0
  2  5  2  0  0  0  0
  3 15  1  0  0  0  0
  6  8  1  0  0  0  0
  6 13  1  0  0  0  0
  6 14  1  0  0  0  0
  7  8  1  0  0  0  0
  7  9  1  0  0  0  0
  7 10  1  0  0  0  0
  8 11  1  0  0  0  0
  8 12  1  0  0  0  0
M  END
> <PUBCHEM_COMPOUND_CID>
76242

> <PUBCHEM_CONFORMER_RMSD>
0.6

> <PUBCHEM_CONFORMER_DIVERSEORDER>
1
8
5
7
3
6
4
2

> <PUBCHEM_MMFF94_PARTIAL_CHARGES>
11
1 -0.35
13 0.36
14 0.36
15 0.5
2 1.6
3 -0.68
4 -0.65
5 -0.65
6 -0.99
7 0.23
8 0.27

> <PUBCHEM_EFFECTIVE_ROTOR_COUNT>
3

> <PUBCHEM_PHARMACOPHORE_FEATURES>
6
1 3 acceptor
1 4 acceptor
1 5 acceptor
1 6 cation
1 6 donor
4 2 3 4 5 anion

> <PUBCHEM_HEAVY_ATOM_COUNT>
8

> <PUBCHEM_ATOM_DEF_STEREO_COUNT>
0

> <PUBCHEM_ATOM_UDEF_STEREO_COUNT>
0

> <PUBCHEM_BOND_DEF_STEREO_COUNT>
0

> <PUBCHEM_BOND_UDEF_STEREO_COUNT>
0

> <PUBCHEM_ISOTOPIC_ATOM_COUNT>
0

> <PUBCHEM_COMPONENT_COUNT>
1

> <PUBCHEM_CACTVS_TAUTO_COUNT>
1

> <PUBCHEM_CONFORMER_ID>
000129D200000001

> <PUBCHEM_MMFF94_ENERGY>
-0.9702

> <PUBCHEM_FEATURE_SELFOVERLAP>
30.504

> <PUBCHEM_SHAPE_FINGERPRINT>
11062470 55 15339114637080665498
12932764 1 18059581342509295199
14325111 11 18410855494836228675
14390081 3 18201997733765051121
170605 34 17023756765308711892
23235685 24 18187081767016581422
3248919 1 18040991899413205091
5084963 1 18334858303095849059

> <PUBCHEM_SHAPE_MULTIPOLES>
149.75
5.24
1.07
0.91
3.74
0.15
0
-0.36
0
-0.31
0
-0.54
-0.26
0

> <PUBCHEM_SHAPE_SELFOVERLAP>
246.768

> <PUBCHEM_SHAPE_VOLUME>
104

> <PUBCHEM_COORDINATE_TYPE>
2
5
10

$$$$
