76573
  -OEChem-03052615053D

 42 44  0     0  0  0  0  0  0999 V2000
    0.1349    0.4067   -0.1260 O   0  0  0  0  0  0  0  0  0  0  0  0
   -4.2005    2.3300   -0.3949 O   0  0  0  0  0  0  0  0  0  0  0  0
   -3.8087   -2.3814    0.1851 O   0  0  0  0  0  0  0  0  0  0  0  0
   -1.3920   -3.3444    0.3178 O   0  0  0  0  0  0  0  0  0  0  0  0
    6.4570    0.5009   -0.1090 O   0  0  0  0  0  0  0  0  0  0  0  0
   -1.2240    0.2186   -0.1128 C   0  0  0  0  0  0  0  0  0  0  0  0
   -1.8124   -1.0361    0.0364 C   0  0  0  0  0  0  0  0  0  0  0  0
   -2.0250    1.3514   -0.2583 C   0  0  0  0  0  0  0  0  0  0  0  0
   -4.0017   -0.0334   -0.1035 C   0  0  0  0  0  0  0  0  0  0  0  0
   -3.4143    1.2237   -0.2533 C   0  0  0  0  0  0  0  0  0  0  0  0
   -3.2028   -1.1683    0.0418 C   0  0  0  0  0  0  0  0  0  0  0  0
   -0.9441   -2.2138    0.1860 C   0  0  0  0  0  0  0  0  0  0  0  0
    0.9564   -0.7004    0.0234 C   0  0  0  0  0  0  0  0  0  0  0  0
    0.5105   -1.9584    0.1678 C   0  0  0  0  0  0  0  0  0  0  0  0
   -1.4024    2.7019   -0.4206 C   0  0  0  0  0  0  0  0  0  0  0  0
   -5.4923   -0.1611   -0.0987 C   0  0  0  0  0  0  0  0  0  0  0  0
    2.3989   -0.3861   -0.0112 C   0  0  0  0  0  0  0  0  0  0  0  0
    3.3098   -1.3202   -0.5105 C   0  0  0  0  0  0  0  0  0  0  0  0
    2.8589    0.8480    0.4552 C   0  0  0  0  0  0  0  0  0  0  0  0
    4.6720   -1.0224   -0.5430 C   0  0  0  0  0  0  0  0  0  0  0  0
    4.2212    1.1460    0.4225 C   0  0  0  0  0  0  0  0  0  0  0  0
    5.1278    0.2108   -0.0766 C   0  0  0  0  0  0  0  0  0  0  0  0
   -4.5823    3.0082    0.7990 C   0  0  0  0  0  0  0  0  0  0  0  0
    6.8548    1.7797    0.3834 C   0  0  0  0  0  0  0  0  0  0  0  0
    1.1545   -2.8204    0.2966 H   0  0  0  0  0  0  0  0  0  0  0  0
   -0.4862    2.6499   -1.0189 H   0  0  0  0  0  0  0  0  0  0  0  0
   -2.0592    3.4028   -0.9458 H   0  0  0  0  0  0  0  0  0  0  0  0
   -1.1577    3.1216    0.5604 H   0  0  0  0  0  0  0  0  0  0  0  0
   -5.8674   -0.1332    0.9292 H   0  0  0  0  0  0  0  0  0  0  0  0
   -5.9773    0.6369   -0.6704 H   0  0  0  0  0  0  0  0  0  0  0  0
   -5.8160   -1.0982   -0.5646 H   0  0  0  0  0  0  0  0  0  0  0  0
    2.9929   -2.2826   -0.9034 H   0  0  0  0  0  0  0  0  0  0  0  0
    2.1745    1.5916    0.8566 H   0  0  0  0  0  0  0  0  0  0  0  0
   -3.1512   -3.0868    0.2803 H   0  0  0  0  0  0  0  0  0  0  0  0
    5.3735   -1.7526   -0.9374 H   0  0  0  0  0  0  0  0  0  0  0  0
    4.5071    2.1211    0.8019 H   0  0  0  0  0  0  0  0  0  0  0  0
   -5.1679    2.3515    1.4498 H   0  0  0  0  0  0  0  0  0  0  0  0
   -5.2025    3.8650    0.5215 H   0  0  0  0  0  0  0  0  0  0  0  0
   -3.7025    3.3758    1.3363 H   0  0  0  0  0  0  0  0  0  0  0  0
    6.6263    1.8895    1.4489 H   0  0  0  0  0  0  0  0  0  0  0  0
    6.4317    2.5917   -0.2178 H   0  0  0  0  0  0  0  0  0  0  0  0
    7.9434    1.8407    0.2820 H   0  0  0  0  0  0  0  0  0  0  0  0
  1  6  1  0  0  0  0
  1 13  1  0  0  0  0
  2 10  1  0  0  0  0
  2 23  1  0  0  0  0
  3 11  1  0  0  0  0
  3 34  1  0  0  0  0
  4 12  2  0  0  0  0
  5 22  1  0  0  0  0
  5 24  1  0  0  0  0
  6  7  2  0  0  0  0
  6  8  1  0  0  0  0
  7 11  1  0  0  0  0
  7 12  1  0  0  0  0
  8 10  2  0  0  0  0
  8 15  1  0  0  0  0
  9 10  1  0  0  0  0
  9 11  2  0  0  0  0
  9 16  1  0  0  0  0
 12 14  1  0  0  0  0
 13 14  2  0  0  0  0
 13 17  1  0  0  0  0
 14 25  1  0  0  0  0
 15 26  1  0  0  0  0
 15 27  1  0  0  0  0
 15 28  1  0  0  0  0
 16 29  1  0  0  0  0
 16 30  1  0  0  0  0
 16 31  1  0  0  0  0
 17 18  2  0  0  0  0
 17 19  1  0  0  0  0
 18 20  1  0  0  0  0
 18 32  1  0  0  0  0
 19 21  2  0  0  0  0
 19 33  1  0  0  0  0
 20 22  2  0  0  0  0
 20 35  1  0  0  0  0
 21 22  1  0  0  0  0
 21 36  1  0  0  0  0
 23 37  1  0  0  0  0
 23 38  1  0  0  0  0
 23 39  1  0  0  0  0
 24 40  1  0  0  0  0
 24 41  1  0  0  0  0
 24 42  1  0  0  0  0
M  END
> <PUBCHEM_COMPOUND_CID>
76573

> <PUBCHEM_CONFORMER_RMSD>
0.6

> <PUBCHEM_CONFORMER_DIVERSEORDER>
1
2
5
3
4
6

> <PUBCHEM_MMFF94_PARTIAL_CHARGES>
30
1 -0.16
10 0.08
11 0.08
12 0.47
13 0.05
14 -0.14
15 0.14
16 0.14
17 0.03
18 -0.15
19 -0.15
2 -0.36
20 -0.15
21 -0.15
22 0.08
23 0.28
24 0.28
25 0.15
3 -0.53
32 0.15
33 0.15
34 0.45
35 0.15
36 0.15
4 -0.57
5 -0.36
6 0.08
7 0.09
8 -0.14
9 -0.14

> <PUBCHEM_EFFECTIVE_ROTOR_COUNT>
3

> <PUBCHEM_PHARMACOPHORE_FEATURES>
8
1 1 acceptor
1 2 acceptor
1 3 donor
1 4 acceptor
1 5 acceptor
6 1 6 7 12 13 14 rings
6 17 18 19 20 21 22 rings
6 6 7 8 9 10 11 rings

> <PUBCHEM_HEAVY_ATOM_COUNT>
24

> <PUBCHEM_ATOM_DEF_STEREO_COUNT>
0

> <PUBCHEM_ATOM_UDEF_STEREO_COUNT>
0

> <PUBCHEM_BOND_DEF_STEREO_COUNT>
0

> <PUBCHEM_BOND_UDEF_STEREO_COUNT>
0

> <PUBCHEM_ISOTOPIC_ATOM_COUNT>
0

> <PUBCHEM_COMPONENT_COUNT>
1

> <PUBCHEM_CACTVS_TAUTO_COUNT>
5

> <PUBCHEM_CONFORMER_ID>
00012B1D00000001

> <PUBCHEM_MMFF94_ENERGY>
96.5395

> <PUBCHEM_FEATURE_SELFOVERLAP>
40.626

> <PUBCHEM_SHAPE_FINGERPRINT>
10319926 262 18339063957528312770
10411042 1 17761212515720438507
10493431 412 18338805494717484465
10498660 4 18335416812137735869
11135609 187 18191293898434242133
11315181 36 17967813894610608212
11595378 159 17604414242090067512
12107183 9 18046335345963033514
12236239 1 17458059374191904282
12390115 104 18270412598245691417
12403259 415 18341902865837456190
12596602 18 16660648504965466536
12838862 33 18263626460172065133
13073987 5 18334856126075379746
13140716 1 17975704106105648171
13402501 40 18342173384442505896
14790565 3 17836935490656694769
15042514 8 18191310588276246971
15196674 1 18338797818866705662
18608769 82 18339363084166676667
200 152 17131834270078306978
20510252 161 18413108351042979563
20642791 178 18260845794928530813
20645477 56 18410009957451447378
20645477 70 17274833411535450182
21033648 29 17916854812187081872
21236236 1 18412262826901906341
21267235 1 18336553793408166719
21279426 13 18269840813634005302
21421861 104 17750783369353422586
23227448 37 18340485663905186710
23402539 116 18339636840738912359
23557571 272 18342463672681214260
23559900 14 18269831072648411768
283562 15 18409727387791476043
2916195 48 18413666916193675984
3004659 81 18335704898103167702
335352 9 18337106865337591391
34797466 226 17846506950013842756
350125 39 18410857702191157417
3545911 37 18413108377282196972
4073 2 18187932820031070618
4214541 1 18410575085111497828
445580 37 18336559300073393748
5104073 3 18261957340737392962
5283173 99 18413670214644059544
633830 44 18199462165077069135
636775 72 18270676593312831848
7808743 9 18409163286195748336
9709674 26 18341337755579327942
9981440 41 18259989257937079091

> <PUBCHEM_SHAPE_MULTIPOLES>
464.56
13.62
3.07
0.7
15.67
0.04
0.01
6.77
0.4
-3.06
0.33
0.01
0.1
0.49

> <PUBCHEM_SHAPE_SELFOVERLAP>
1021.648

> <PUBCHEM_SHAPE_VOLUME>
252.7

> <PUBCHEM_COORDINATE_TYPE>
2
5
10

$$$$
