158144
  -OEChem-02172602563D

 50 52  0     1  0  0  0  0  0999 V2000
    0.5318    0.9724    0.9911 O   0  0  0  0  0  0  0  0  0  0  0  0
   -1.1348    1.8799   -0.3456 O   0  0  0  0  0  0  0  0  0  0  0  0
   -2.2612   -3.5213    1.1140 O   0  0  0  0  0  0  0  0  0  0  0  0
    1.7773   -0.4307   -0.3961 O   0  0  0  0  0  0  0  0  0  0  0  0
    2.8274    2.5781    1.3913 O   0  0  0  0  0  0  0  0  0  0  0  0
    5.3173    1.0332    1.0845 O   0  0  0  0  0  0  0  0  0  0  0  0
    5.2977   -0.4342   -1.4059 O   0  0  0  0  0  0  0  0  0  0  0  0
   -5.4880    0.0997   -0.4707 O   0  0  0  0  0  0  0  0  0  0  0  0
   -5.0630    1.9858   -1.6922 O   0  0  0  0  0  0  0  0  0  0  0  0
    1.5873   -2.1032   -2.5693 O   0  0  0  0  0  0  0  0  0  0  0  0
   -1.6912    0.0728    1.2594 C   0  0  1  0  0  0  0  0  0  0  0  0
   -3.0540   -0.1339    0.5713 C   0  0  2  0  0  0  0  0  0  0  0  0
   -1.3997   -1.3431    1.7902 C   0  0  1  0  0  0  0  0  0  0  0  0
   -1.8262   -2.2586    0.6365 C   0  0  2  0  0  0  0  0  0  0  0  0
   -2.9769   -1.5316   -0.0662 C   0  0  0  0  0  0  0  0  0  0  0  0
   -0.6653    0.6725    0.2755 C   0  0  2  0  0  0  0  0  0  0  0  0
   -3.3528    0.9543   -0.4027 C   0  0  0  0  0  0  0  0  0  0  0  0
    0.0194   -1.6181    2.2655 C   0  0  0  0  0  0  0  0  0  0  0  0
    1.6781    0.8845    0.1454 C   0  0  2  0  0  0  0  0  0  0  0  0
   -2.4385    1.8603   -0.7620 C   0  0  0  0  0  0  0  0  0  0  0  0
    2.9110    1.2114    0.9881 C   0  0  1  0  0  0  0  0  0  0  0  0
    4.1999    0.9940    0.1955 C   0  0  2  0  0  0  0  0  0  0  0  0
    4.1980   -0.3664   -0.5019 C   0  0  1  0  0  0  0  0  0  0  0  0
    2.8941   -0.5788   -1.2747 C   0  0  1  0  0  0  0  0  0  0  0  0
   -4.7067    1.0966   -0.9384 C   0  0  0  0  0  0  0  0  0  0  0  0
    2.8190   -1.9759   -1.8825 C   0  0  0  0  0  0  0  0  0  0  0  0
   -1.7999    0.7642    2.1063 H   0  0  0  0  0  0  0  0  0  0  0  0
   -3.8166   -0.1481    1.3629 H   0  0  0  0  0  0  0  0  0  0  0  0
   -2.0601   -1.5234    2.6512 H   0  0  0  0  0  0  0  0  0  0  0  0
   -1.0053   -2.4297   -0.0690 H   0  0  0  0  0  0  0  0  0  0  0  0
   -3.9293   -2.0637    0.0388 H   0  0  0  0  0  0  0  0  0  0  0  0
   -2.7632   -1.4722   -1.1409 H   0  0  0  0  0  0  0  0  0  0  0  0
   -0.4821   -0.0505   -0.5291 H   0  0  0  0  0  0  0  0  0  0  0  0
    0.0603   -2.5868    2.7763 H   0  0  0  0  0  0  0  0  0  0  0  0
    0.7324   -1.6704    1.4422 H   0  0  0  0  0  0  0  0  0  0  0  0
    0.3505   -0.8563    2.9780 H   0  0  0  0  0  0  0  0  0  0  0  0
    1.5601    1.6147   -0.6667 H   0  0  0  0  0  0  0  0  0  0  0  0
   -2.6252    2.7082   -1.4074 H   0  0  0  0  0  0  0  0  0  0  0  0
    2.9178    0.6108    1.9055 H   0  0  0  0  0  0  0  0  0  0  0  0
   -2.9978   -3.3746    1.7316 H   0  0  0  0  0  0  0  0  0  0  0  0
    4.3578    1.8008   -0.5298 H   0  0  0  0  0  0  0  0  0  0  0  0
    4.3339   -1.1551    0.2494 H   0  0  0  0  0  0  0  0  0  0  0  0
    2.7976    0.1516   -2.0895 H   0  0  0  0  0  0  0  0  0  0  0  0
    2.8462   -2.7430   -1.1014 H   0  0  0  0  0  0  0  0  0  0  0  0
    3.6291   -2.1543   -2.5950 H   0  0  0  0  0  0  0  0  0  0  0  0
    2.8194    3.1288    0.5899 H   0  0  0  0  0  0  0  0  0  0  0  0
    5.1969    0.3371    1.7529 H   0  0  0  0  0  0  0  0  0  0  0  0
    5.4271   -1.3664   -1.6482 H   0  0  0  0  0  0  0  0  0  0  0  0
   -6.4066    0.1613   -0.8093 H   0  0  0  0  0  0  0  0  0  0  0  0
    1.5561   -3.0018   -2.9393 H   0  0  0  0  0  0  0  0  0  0  0  0
  1 16  1  0  0  0  0
  1 19  1  0  0  0  0
  2 16  1  0  0  0  0
  2 20  1  0  0  0  0
  3 14  1  0  0  0  0
  3 40  1  0  0  0  0
  4 19  1  0  0  0  0
  4 24  1  0  0  0  0
  5 21  1  0  0  0  0
  5 46  1  0  0  0  0
  6 22  1  0  0  0  0
  6 47  1  0  0  0  0
  7 23  1  0  0  0  0
  7 48  1  0  0  0  0
  8 25  1  0  0  0  0
  8 49  1  0  0  0  0
  9 25  2  0  0  0  0
 10 26  1  0  0  0  0
 10 50  1  0  0  0  0
 11 12  1  0  0  0  0
 11 13  1  0  0  0  0
 11 16  1  0  0  0  0
 11 27  1  0  0  0  0
 12 15  1  0  0  0  0
 12 17  1  0  0  0  0
 12 28  1  0  0  0  0
 13 14  1  0  0  0  0
 13 18  1  0  0  0  0
 13 29  1  0  0  0  0
 14 15  1  0  0  0  0
 14 30  1  0  0  0  0
 15 31  1  0  0  0  0
 15 32  1  0  0  0  0
 16 33  1  0  0  0  0
 17 20  2  0  0  0  0
 17 25  1  0  0  0  0
 18 34  1  0  0  0  0
 18 35  1  0  0  0  0
 18 36  1  0  0  0  0
 19 21  1  0  0  0  0
 19 37  1  0  0  0  0
 20 38  1  0  0  0  0
 21 22  1  0  0  0  0
 21 39  1  0  0  0  0
 22 23  1  0  0  0  0
 22 41  1  0  0  0  0
 23 24  1  0  0  0  0
 23 42  1  0  0  0  0
 24 26  1  0  0  0  0
 24 43  1  0  0  0  0
 26 44  1  0  0  0  0
 26 45  1  0  0  0  0
M  END
> <PUBCHEM_COMPOUND_CID>
158144

> <PUBCHEM_CONFORMER_RMSD>
0.8

> <PUBCHEM_CONFORMER_DIVERSEORDER>
8
17
4
75
69
56
53
20
32
29
30
46
54
62
22
10
34
31
66
58
67
39
24
73
1
45
64
3
50
23
60
41
25
51
26
16
28
68
70
52
27
42
9
5
44
49
6
48
71
19
37
35
12
61
38
47
40
7
43
59
72
65
13
11
55
36
33
18
15
74
57
14
21
63
2

> <PUBCHEM_MMFF94_PARTIAL_CHARGES>
29
1 -0.56
10 -0.68
12 0.14
14 0.28
16 0.56
17 -0.12
19 0.56
2 -0.36
20 -0.07
21 0.28
22 0.28
23 0.28
24 0.28
25 0.71
26 0.28
3 -0.68
38 0.15
4 -0.56
40 0.4
46 0.4
47 0.4
48 0.4
49 0.5
5 -0.68
50 0.4
6 -0.68
7 -0.68
8 -0.65
9 -0.57

> <PUBCHEM_EFFECTIVE_ROTOR_COUNT>
6.2

> <PUBCHEM_PHARMACOPHORE_FEATURES>
19
1 1 acceptor
1 10 acceptor
1 10 donor
1 2 acceptor
1 3 acceptor
1 3 donor
1 4 acceptor
1 5 acceptor
1 5 donor
1 6 acceptor
1 6 donor
1 7 acceptor
1 7 donor
1 8 acceptor
1 9 acceptor
3 8 9 25 anion
5 11 12 13 14 15 rings
6 2 11 12 16 17 20 rings
6 4 19 21 22 23 24 rings

> <PUBCHEM_HEAVY_ATOM_COUNT>
26

> <PUBCHEM_ATOM_DEF_STEREO_COUNT>
10

> <PUBCHEM_ATOM_UDEF_STEREO_COUNT>
0

> <PUBCHEM_BOND_DEF_STEREO_COUNT>
0

> <PUBCHEM_BOND_UDEF_STEREO_COUNT>
0

> <PUBCHEM_ISOTOPIC_ATOM_COUNT>
0

> <PUBCHEM_COMPONENT_COUNT>
1

> <PUBCHEM_CACTVS_TAUTO_COUNT>
1

> <PUBCHEM_CONFORMER_ID>
000269C000000008

> <PUBCHEM_MMFF94_ENERGY>
77.3686

> <PUBCHEM_FEATURE_SELFOVERLAP>
96.737

> <PUBCHEM_SHAPE_FINGERPRINT>
10366900 7 18201165368976706796
11370993 70 17989203780489582942
11582403 64 17333585878978111424
11640471 11 15864649352396551126
12236239 1 15864069870882197624
13402501 40 18342177769271435662
13544592 145 18411138030464191665
13911987 19 17774163560415663304
140371 6 18413112779055048328
14251757 17 18341054021359622315
151778 21 11026675036501526270
15375358 24 18413390934173973844
15635459 17 18200882785819228014
16752209 62 17676489501001170339
17980427 23 17970618817276874924
200 152 16845574209978391593
20511986 3 16226053327015049876
20600515 1 17968366961375504236
20645476 183 16370736936864206137
20645477 70 17989489606584376852
22182313 1 18336277794683823715
23402539 116 18114732819688172076
23419403 2 14904782453332377315
23557571 272 18264207079072108297
23559900 14 18410013264882636168
23598288 3 16299825063806757803
238 59 17917711288326006158
3472631 163 17749391489783549196
4015057 19 18060699506858427689
495365 180 17774426291669355984
5283173 99 18409445860694707645
6669772 16 18337662032067155539
9709674 26 18339923839037926881

> <PUBCHEM_SHAPE_MULTIPOLES>
476.37
10.24
2.71
1.92
1.91
1.27
0.33
-3.62
3.49
-1.46
-0.25
0.97
0.83
3.05

> <PUBCHEM_SHAPE_SELFOVERLAP>
1004.744

> <PUBCHEM_SHAPE_VOLUME>
263.1

> <PUBCHEM_COORDINATE_TYPE>
2
5
10

$$$$
