101614131
  -OEChem-02172602433D

 60 65  0     0  0  0  0  0  0999 V2000
   -2.9064   -2.9488   -0.0241 S   0  0  0  0  0  0  0  0  0  0  0  0
   -2.8085   -3.1540    1.4436 O   0  0  0  0  0  0  0  0  0  0  0  0
   -3.4160   -4.0922   -0.8149 O   0  0  0  0  0  0  0  0  0  0  0  0
   -8.4686    3.0361   -0.0572 O   0  0  0  0  0  0  0  0  0  0  0  0
   -6.8996    2.5079    1.5204 O   0  0  0  0  0  0  0  0  0  0  0  0
   -1.4671   -2.4232   -0.6787 N   0  0  0  0  0  0  0  0  0  0  0  0
    2.9466    0.2357    1.3031 N   0  0  0  0  0  0  0  0  0  0  0  0
    6.4565    1.4254   -0.6546 N   0  0  0  0  0  0  0  0  0  0  0  0
   -7.1197    1.2786   -0.4647 N   0  0  0  0  0  0  0  0  0  0  0  0
   -0.4677   -1.7613   -0.0015 C   0  0  0  0  0  0  0  0  0  0  0  0
    0.5523   -1.5064   -0.9206 C   0  0  0  0  0  0  0  0  0  0  0  0
    1.8001   -0.4358    0.8586 C   0  0  0  0  0  0  0  0  0  0  0  0
   -1.1150   -2.5948   -1.9905 C   0  0  0  0  0  0  0  0  0  0  0  0
    1.7079   -0.8308   -0.4810 C   0  0  0  0  0  0  0  0  0  0  0  0
    0.1301   -2.0380   -2.1712 C   0  0  0  0  0  0  0  0  0  0  0  0
   -0.3895   -1.3728    1.3406 C   0  0  0  0  0  0  0  0  0  0  0  0
    4.1367    0.6391    0.6392 C   0  0  0  0  0  0  0  0  0  0  0  0
    0.7662   -0.7037    1.7537 C   0  0  0  0  0  0  0  0  0  0  0  0
   -4.1732   -1.6775   -0.1564 C   0  0  0  0  0  0  0  0  0  0  0  0
    5.2326   -0.2286    0.5927 C   0  0  0  0  0  0  0  0  0  0  0  0
    4.2019    1.9002    0.0382 C   0  0  0  0  0  0  0  0  0  0  0  0
    6.3885    0.2117   -0.0740 C   0  0  0  0  0  0  0  0  0  0  0  0
    5.3981    2.2572   -0.6070 C   0  0  0  0  0  0  0  0  0  0  0  0
   -4.3352   -0.7449    0.8681 C   0  0  0  0  0  0  0  0  0  0  0  0
   -4.9929   -1.6246   -1.2839 C   0  0  0  0  0  0  0  0  0  0  0  0
    5.1948   -1.5016    1.1878 C   0  0  0  0  0  0  0  0  0  0  0  0
    3.1158    2.7922    0.0696 C   0  0  0  0  0  0  0  0  0  0  0  0
    7.4829   -0.6475   -0.1237 C   0  0  0  0  0  0  0  0  0  0  0  0
    5.4689    3.5113   -1.2075 C   0  0  0  0  0  0  0  0  0  0  0  0
   -5.3169    0.2405    0.7652 C   0  0  0  0  0  0  0  0  0  0  0  0
   -5.9746   -0.6392   -1.3867 C   0  0  0  0  0  0  0  0  0  0  0  0
   -6.1368    0.2934   -0.3620 C   0  0  0  0  0  0  0  0  0  0  0  0
    6.3025   -2.3416    1.1238 C   0  0  0  0  0  0  0  0  0  0  0  0
    3.2123    4.0403   -0.5385 C   0  0  0  0  0  0  0  0  0  0  0  0
    7.4489   -1.9133    0.4668 C   0  0  0  0  0  0  0  0  0  0  0  0
    4.3916    4.4002   -1.1784 C   0  0  0  0  0  0  0  0  0  0  0  0
   -7.4351    2.2885    0.4408 C   0  0  0  0  0  0  0  0  0  0  0  0
   -8.9124    4.1221    0.7648 C   0  0  0  0  0  0  0  0  0  0  0  0
   -1.7703   -3.0906   -2.6940 H   0  0  0  0  0  0  0  0  0  0  0  0
    2.5050   -0.6297   -1.1909 H   0  0  0  0  0  0  0  0  0  0  0  0
    0.6769   -2.0149   -3.1039 H   0  0  0  0  0  0  0  0  0  0  0  0
   -1.1804   -1.5481    2.0577 H   0  0  0  0  0  0  0  0  0  0  0  0
    0.8434   -0.3900    2.7927 H   0  0  0  0  0  0  0  0  0  0  0  0
    2.9407    0.4932    2.2857 H   0  0  0  0  0  0  0  0  0  0  0  0
   -3.7029   -0.7623    1.7509 H   0  0  0  0  0  0  0  0  0  0  0  0
   -4.8771   -2.3370   -2.0957 H   0  0  0  0  0  0  0  0  0  0  0  0
    4.3162   -1.8661    1.7136 H   0  0  0  0  0  0  0  0  0  0  0  0
    2.1808    2.5446    0.5653 H   0  0  0  0  0  0  0  0  0  0  0  0
    8.3928   -0.3350   -0.6329 H   0  0  0  0  0  0  0  0  0  0  0  0
    6.3822    3.8167   -1.7150 H   0  0  0  0  0  0  0  0  0  0  0  0
   -5.3823    0.9290    1.5964 H   0  0  0  0  0  0  0  0  0  0  0  0
   -6.6054   -0.6086   -2.2716 H   0  0  0  0  0  0  0  0  0  0  0  0
    6.2713   -3.3239    1.5851 H   0  0  0  0  0  0  0  0  0  0  0  0
    2.3726    4.7279   -0.5121 H   0  0  0  0  0  0  0  0  0  0  0  0
    8.3190   -2.5608    0.4113 H   0  0  0  0  0  0  0  0  0  0  0  0
    4.4775    5.3719   -1.6559 H   0  0  0  0  0  0  0  0  0  0  0  0
   -7.6812    1.2580   -1.3127 H   0  0  0  0  0  0  0  0  0  0  0  0
   -9.7332    4.6259    0.2475 H   0  0  0  0  0  0  0  0  0  0  0  0
   -8.0996    4.8388    0.9158 H   0  0  0  0  0  0  0  0  0  0  0  0
   -9.2802    3.7449    1.7237 H   0  0  0  0  0  0  0  0  0  0  0  0
  1  2  2  0  0  0  0
  1  3  2  0  0  0  0
  1  6  1  0  0  0  0
  1 19  1  0  0  0  0
  4 37  1  0  0  0  0
  4 38  1  0  0  0  0
  5 37  2  0  0  0  0
  6 10  1  0  0  0  0
  6 13  1  0  0  0  0
  7 12  1  0  0  0  0
  7 17  1  0  0  0  0
  7 44  1  0  0  0  0
  8 22  2  0  0  0  0
  8 23  1  0  0  0  0
  9 32  1  0  0  0  0
  9 37  1  0  0  0  0
  9 57  1  0  0  0  0
 10 11  2  0  0  0  0
 10 16  1  0  0  0  0
 11 14  1  0  0  0  0
 11 15  1  0  0  0  0
 12 14  2  0  0  0  0
 12 18  1  0  0  0  0
 13 15  2  0  0  0  0
 13 39  1  0  0  0  0
 14 40  1  0  0  0  0
 15 41  1  0  0  0  0
 16 18  2  0  0  0  0
 16 42  1  0  0  0  0
 17 20  2  0  0  0  0
 17 21  1  0  0  0  0
 18 43  1  0  0  0  0
 19 24  2  0  0  0  0
 19 25  1  0  0  0  0
 20 22  1  0  0  0  0
 20 26  1  0  0  0  0
 21 23  1  0  0  0  0
 21 27  2  0  0  0  0
 22 28  1  0  0  0  0
 23 29  2  0  0  0  0
 24 30  1  0  0  0  0
 24 45  1  0  0  0  0
 25 31  2  0  0  0  0
 25 46  1  0  0  0  0
 26 33  2  0  0  0  0
 26 47  1  0  0  0  0
 27 34  1  0  0  0  0
 27 48  1  0  0  0  0
 28 35  2  0  0  0  0
 28 49  1  0  0  0  0
 29 36  1  0  0  0  0
 29 50  1  0  0  0  0
 30 32  2  0  0  0  0
 30 51  1  0  0  0  0
 31 32  1  0  0  0  0
 31 52  1  0  0  0  0
 33 35  1  0  0  0  0
 33 53  1  0  0  0  0
 34 36  2  0  0  0  0
 34 54  1  0  0  0  0
 35 55  1  0  0  0  0
 36 56  1  0  0  0  0
 38 58  1  0  0  0  0
 38 59  1  0  0  0  0
 38 60  1  0  0  0  0
M  END
> <PUBCHEM_COMPOUND_CID>
101614131

> <PUBCHEM_CONFORMER_RMSD>
1

> <PUBCHEM_CONFORMER_DIVERSEORDER>
1
90
61
68
18
57
25
55
85
79
74
24
80
47
82
27
29
66
31
45
37
33
81
51
62
73
42
63
14
87
60
26
16
77
15
83
76
69
41
19
50
40
56
34
93
53
84
36
86
91
64
65
6
92
17
39
8
58
43
21
23
2
89
49
78
11
28
54
9
32
67
38
48
13
20
59
88
10
75
35
52
30
44
46
22
71
72
70
12
7
5
3
4

> <PUBCHEM_MMFF94_PARTIAL_CHARGES>
54
1 1.29
10 -0.15
12 0.1
13 -0.3
14 -0.15
15 -0.15
16 -0.15
17 0.1
18 -0.15
19 -0.01
2 -0.65
22 0.31
23 0.31
24 -0.15
25 -0.15
26 -0.15
27 -0.15
28 -0.15
29 -0.15
3 -0.65
30 -0.15
31 -0.15
32 0.12
33 -0.15
34 -0.15
35 -0.15
36 -0.15
37 0.78
38 0.28
39 0.15
4 -0.43
40 0.15
41 0.15
42 0.15
43 0.15
44 0.4
45 0.15
46 0.15
47 0.15
48 0.15
49 0.15
5 -0.57
50 0.15
51 0.15
52 0.15
53 0.15
54 0.15
55 0.15
56 0.15
57 0.37
6 0.32
7 -0.6
8 -0.62
9 -0.55

> <PUBCHEM_EFFECTIVE_ROTOR_COUNT>
7

> <PUBCHEM_PHARMACOPHORE_FEATURES>
13
1 2 acceptor
1 3 acceptor
1 5 acceptor
1 7 cation
1 7 donor
1 8 acceptor
1 9 donor
5 6 10 11 13 15 rings
6 10 11 12 14 16 18 rings
6 19 24 25 30 31 32 rings
6 20 22 26 28 33 35 rings
6 21 23 27 29 34 36 rings
6 8 17 20 21 22 23 rings

> <PUBCHEM_HEAVY_ATOM_COUNT>
38

> <PUBCHEM_ATOM_DEF_STEREO_COUNT>
0

> <PUBCHEM_ATOM_UDEF_STEREO_COUNT>
0

> <PUBCHEM_BOND_DEF_STEREO_COUNT>
0

> <PUBCHEM_BOND_UDEF_STEREO_COUNT>
0

> <PUBCHEM_ISOTOPIC_ATOM_COUNT>
0

> <PUBCHEM_COMPONENT_COUNT>
1

> <PUBCHEM_CACTVS_TAUTO_COUNT>
21

> <PUBCHEM_CONFORMER_ID>
060E823300000001

> <PUBCHEM_MMFF94_ENERGY>
139.0423

> <PUBCHEM_FEATURE_SELFOVERLAP>
66.145

> <PUBCHEM_SHAPE_FINGERPRINT>
10190108 129 17240484658986638052
11115154 58 18335424552744923960
11456790 92 17241031129899449714
12013929 29 18338241560457566532
12107183 9 18410852157705012914
13512321 179 18342182128869677849
14117953 113 18270964540345957341
14664723 55 18411979153371692125
15064981 113 17489597761454399133
15183329 4 18202005477459424822
15276724 80 18259978293275559732
15320295 40 15985097484144666794
15357212 105 17823992323205057644
15444296 9 18339924792827187421
15840311 113 18041555936056571999
16067689 134 18410576145837272342
16758388 162 18041550352171845275
19302320 297 18337398149804010105
20511986 3 17629483270871105284
20691028 202 18410007758876981209
21133410 90 17489577970636217336
21647283 7 18333456443826459001
22122407 14 18264213667483264626
23191077 185 18199457951830644327
23572383 38 12894794817476138188
2838139 119 18341893034878894295
393628 194 18411699856112712517
394071 54 16154546657502084462
4144715 1 18043256948958763202
44555599 121 18410292544539760105
58902169 19 18411978057711867810
6328613 192 18336262443816306950

> <PUBCHEM_SHAPE_MULTIPOLES>
742.47
24.78
5.39
1.55
25.07
4.8
0.22
19.71
-2.7
2.57
1.09
0.42
-0.6
-4.66

> <PUBCHEM_SHAPE_SELFOVERLAP>
1657.22

> <PUBCHEM_SHAPE_VOLUME>
395.6

> <PUBCHEM_COORDINATE_TYPE>
2
5
10

$$$$
