102434444
  -OEChem-02172602433D

 60 64  0     0  0  0  0  0  0999 V2000
    0.8715   -0.4524    0.4029 N   0  0  0  0  0  0  0  0  0  0  0  0
   -0.0558    1.9505   -0.5422 N   0  0  0  0  0  0  0  0  0  0  0  0
   -0.5315   -0.2841    0.2440 C   0  0  0  0  0  0  0  0  0  0  0  0
   -1.0017    0.9344   -0.2343 C   0  0  0  0  0  0  0  0  0  0  0  0
   -1.4151   -1.3190    0.5609 C   0  0  0  0  0  0  0  0  0  0  0  0
   -2.3700    1.1555   -0.4105 C   0  0  0  0  0  0  0  0  0  0  0  0
   -2.8125   -1.1329    0.3956 C   0  0  0  0  0  0  0  0  0  0  0  0
   -3.2993    0.1285   -0.0995 C   0  0  0  0  0  0  0  0  0  0  0  0
    1.7822   -1.3545   -0.1614 C   0  0  0  0  0  0  0  0  0  0  0  0
    1.2047    2.2560   -0.0134 C   0  0  0  0  0  0  0  0  0  0  0  0
   -0.9079   -2.5382    1.0420 C   0  0  0  0  0  0  0  0  0  0  0  0
   -2.8130    2.3978   -0.8958 C   0  0  0  0  0  0  0  0  0  0  0  0
   -3.6449   -2.2279    0.7381 C   0  0  0  0  0  0  0  0  0  0  0  0
   -4.6698    0.4274   -0.3040 C   0  0  0  0  0  0  0  0  0  0  0  0
    1.5572   -1.8650   -1.4397 C   0  0  0  0  0  0  0  0  0  0  0  0
    1.3354    2.5748    1.3381 C   0  0  0  0  0  0  0  0  0  0  0  0
    2.9143   -1.7425    0.5551 C   0  0  0  0  0  0  0  0  0  0  0  0
    2.3292    2.2416   -0.8386 C   0  0  0  0  0  0  0  0  0  0  0  0
   -1.7585   -3.5903    1.3673 C   0  0  0  0  0  0  0  0  0  0  0  0
   -4.1681    2.6527   -1.0833 C   0  0  0  0  0  0  0  0  0  0  0  0
   -3.1275   -3.4352    1.2152 C   0  0  0  0  0  0  0  0  0  0  0  0
   -5.0968    1.6672   -0.7872 C   0  0  0  0  0  0  0  0  0  0  0  0
    2.4641   -2.7635   -2.0016 C   0  0  0  0  0  0  0  0  0  0  0  0
    2.5907    2.8792    1.8647 C   0  0  0  0  0  0  0  0  0  0  0  0
    3.8214   -2.6411   -0.0066 C   0  0  0  0  0  0  0  0  0  0  0  0
    3.5846    2.5460   -0.3121 C   0  0  0  0  0  0  0  0  0  0  0  0
    0.3536   -1.4679   -2.2314 C   0  0  0  0  0  0  0  0  0  0  0  0
    0.1492    2.5984    2.2466 C   0  0  0  0  0  0  0  0  0  0  0  0
    3.1823   -1.2127    1.9265 C   0  0  0  0  0  0  0  0  0  0  0  0
    2.2206    1.9039   -2.2902 C   0  0  0  0  0  0  0  0  0  0  0  0
    3.5963   -3.1516   -1.2850 C   0  0  0  0  0  0  0  0  0  0  0  0
    3.7153    2.8648    1.0396 C   0  0  0  0  0  0  0  0  0  0  0  0
    1.1922   -0.0080    1.2562 H   0  0  0  0  0  0  0  0  0  0  0  0
   -0.2645    2.4434   -1.4042 H   0  0  0  0  0  0  0  0  0  0  0  0
    0.1457   -2.7168    1.2233 H   0  0  0  0  0  0  0  0  0  0  0  0
   -2.1322    3.2117   -1.1309 H   0  0  0  0  0  0  0  0  0  0  0  0
   -4.7256   -2.1641    0.6400 H   0  0  0  0  0  0  0  0  0  0  0  0
   -5.4428   -0.3060   -0.0892 H   0  0  0  0  0  0  0  0  0  0  0  0
   -1.3531   -4.5235    1.7461 H   0  0  0  0  0  0  0  0  0  0  0  0
   -4.4958    3.6184   -1.4559 H   0  0  0  0  0  0  0  0  0  0  0  0
   -3.7995   -4.2500    1.4685 H   0  0  0  0  0  0  0  0  0  0  0  0
   -6.1567    1.8572   -0.9295 H   0  0  0  0  0  0  0  0  0  0  0  0
    2.3037   -3.1729   -2.9955 H   0  0  0  0  0  0  0  0  0  0  0  0
    2.7103    3.1263    2.9162 H   0  0  0  0  0  0  0  0  0  0  0  0
    4.7089   -2.9536    0.5372 H   0  0  0  0  0  0  0  0  0  0  0  0
    4.4709    2.5357   -0.9409 H   0  0  0  0  0  0  0  0  0  0  0  0
    0.4824   -1.7699   -3.2794 H   0  0  0  0  0  0  0  0  0  0  0  0
    0.2137   -0.3878   -2.2821 H   0  0  0  0  0  0  0  0  0  0  0  0
   -0.5468   -1.9837   -1.8928 H   0  0  0  0  0  0  0  0  0  0  0  0
   -0.1431    1.5850    2.5359 H   0  0  0  0  0  0  0  0  0  0  0  0
   -0.7000    3.1129    1.7854 H   0  0  0  0  0  0  0  0  0  0  0  0
    0.3707    3.1485    3.1686 H   0  0  0  0  0  0  0  0  0  0  0  0
    4.0591   -1.6892    2.3791 H   0  0  0  0  0  0  0  0  0  0  0  0
    2.3365   -1.4104    2.5934 H   0  0  0  0  0  0  0  0  0  0  0  0
    3.3808   -0.1381    1.8918 H   0  0  0  0  0  0  0  0  0  0  0  0
    3.0811    2.2947   -2.8459 H   0  0  0  0  0  0  0  0  0  0  0  0
    1.3374    2.3488   -2.7574 H   0  0  0  0  0  0  0  0  0  0  0  0
    2.2052    0.8223   -2.4330 H   0  0  0  0  0  0  0  0  0  0  0  0
    4.3024   -3.8514   -1.7224 H   0  0  0  0  0  0  0  0  0  0  0  0
    4.6930    3.0996    1.4501 H   0  0  0  0  0  0  0  0  0  0  0  0
  1  3  1  0  0  0  0
  1  9  1  0  0  0  0
  1 33  1  0  0  0  0
  2  4  1  0  0  0  0
  2 10  1  0  0  0  0
  2 34  1  0  0  0  0
  3  4  2  0  0  0  0
  3  5  1  0  0  0  0
  4  6  1  0  0  0  0
  5  7  1  0  0  0  0
  5 11  2  0  0  0  0
  6  8  1  0  0  0  0
  6 12  2  0  0  0  0
  7  8  1  0  0  0  0
  7 13  2  0  0  0  0
  8 14  2  0  0  0  0
  9 15  2  0  0  0  0
  9 17  1  0  0  0  0
 10 16  2  0  0  0  0
 10 18  1  0  0  0  0
 11 19  1  0  0  0  0
 11 35  1  0  0  0  0
 12 20  1  0  0  0  0
 12 36  1  0  0  0  0
 13 21  1  0  0  0  0
 13 37  1  0  0  0  0
 14 22  1  0  0  0  0
 14 38  1  0  0  0  0
 15 23  1  0  0  0  0
 15 27  1  0  0  0  0
 16 24  1  0  0  0  0
 16 28  1  0  0  0  0
 17 25  2  0  0  0  0
 17 29  1  0  0  0  0
 18 26  2  0  0  0  0
 18 30  1  0  0  0  0
 19 21  2  0  0  0  0
 19 39  1  0  0  0  0
 20 22  2  0  0  0  0
 20 40  1  0  0  0  0
 21 41  1  0  0  0  0
 22 42  1  0  0  0  0
 23 31  2  0  0  0  0
 23 43  1  0  0  0  0
 24 32  2  0  0  0  0
 24 44  1  0  0  0  0
 25 31  1  0  0  0  0
 25 45  1  0  0  0  0
 26 32  1  0  0  0  0
 26 46  1  0  0  0  0
 27 47  1  0  0  0  0
 27 48  1  0  0  0  0
 27 49  1  0  0  0  0
 28 50  1  0  0  0  0
 28 51  1  0  0  0  0
 28 52  1  0  0  0  0
 29 53  1  0  0  0  0
 29 54  1  0  0  0  0
 29 55  1  0  0  0  0
 30 56  1  0  0  0  0
 30 57  1  0  0  0  0
 30 58  1  0  0  0  0
 31 59  1  0  0  0  0
 32 60  1  0  0  0  0
M  END
> <PUBCHEM_COMPOUND_CID>
102434444

> <PUBCHEM_CONFORMER_RMSD>
0.8

> <PUBCHEM_CONFORMER_DIVERSEORDER>
1
2
3
7
4
5
8
6

> <PUBCHEM_MMFF94_PARTIAL_CHARGES>
44
1 -0.6
10 0.1
11 -0.15
12 -0.15
13 -0.15
14 -0.15
15 -0.14
16 -0.14
17 -0.14
18 -0.14
19 -0.15
2 -0.6
20 -0.15
21 -0.15
22 -0.15
23 -0.15
24 -0.15
25 -0.15
26 -0.15
27 0.14
28 0.14
29 0.14
3 0.1
30 0.14
31 -0.15
32 -0.15
33 0.4
34 0.4
35 0.15
36 0.15
37 0.15
38 0.15
39 0.15
4 0.1
40 0.15
41 0.15
42 0.15
43 0.15
44 0.15
45 0.15
46 0.15
59 0.15
60 0.15
9 0.1

> <PUBCHEM_EFFECTIVE_ROTOR_COUNT>
4

> <PUBCHEM_PHARMACOPHORE_FEATURES>
9
1 1 cation
1 1 donor
1 2 cation
1 2 donor
6 10 16 18 24 26 32 rings
6 3 4 5 6 7 8 rings
6 5 7 11 13 19 21 rings
6 6 8 12 14 20 22 rings
6 9 15 17 23 25 31 rings

> <PUBCHEM_HEAVY_ATOM_COUNT>
32

> <PUBCHEM_ATOM_DEF_STEREO_COUNT>
0

> <PUBCHEM_ATOM_UDEF_STEREO_COUNT>
0

> <PUBCHEM_BOND_DEF_STEREO_COUNT>
0

> <PUBCHEM_BOND_UDEF_STEREO_COUNT>
0

> <PUBCHEM_ISOTOPIC_ATOM_COUNT>
0

> <PUBCHEM_COMPONENT_COUNT>
1

> <PUBCHEM_CACTVS_TAUTO_COUNT>
998

> <PUBCHEM_CONFORMER_ID>
061B068C00000001

> <PUBCHEM_MMFF94_ENERGY>
162.6598

> <PUBCHEM_FEATURE_SELFOVERLAP>
45.732

> <PUBCHEM_SHAPE_FINGERPRINT>
10190108 129 17622453061636674751
10675989 125 16171993256718918077
10930396 42 17902197085423129722
1100329 8 17910687466298528449
11578080 2 18115043968636044741
11763715 3 15625949681390000194
12156800 1 16155142558180960160
12293681 160 17761496889672433963
12422481 6 18192123045838265264
12788726 201 17834962966727658778
13140716 1 18335985294625940241
13149001 5 18336831875091694887
133893 2 18191333527453851684
13642711 20 17686871965921781493
140371 6 18127698127880232802
14223421 5 18265339580248998875
15324884 4 18130506340755399694
15439362 3 18336260146225939220
15775530 1 18338245963178040611
16112460 7 18269567035360541401
19311894 1 15678863360813015054
20600515 1 18191855731025486706
20642791 13 17698157349100906960
20642791 239 17898037679757444934
20691752 17 16950275217665657889
20775438 99 18268125691833955799
20905425 154 18264777734170555962
22149856 69 18187656765941838873
23419403 2 18122318221928685972
23559900 14 18410858716077888902
238918 7 18053948634666121418
3178227 256 18045798784330909097
3298306 158 18270397316831192852
3380486 77 17827642448347959834
460360 51 18334870406704092809
57527295 17 17988927760459377317
59755656 215 18191300688165009287
81228 2 17623303675502922698
9709674 26 18410011048552612223

> <PUBCHEM_SHAPE_MULTIPOLES>
648.58
8.01
5.27
1.97
5.03
0.96
-0.15
-0.95
-0.79
-1.97
0.83
-1.27
-0.02
3.06

> <PUBCHEM_SHAPE_SELFOVERLAP>
1453.77

> <PUBCHEM_SHAPE_VOLUME>
343

> <PUBCHEM_COORDINATE_TYPE>
2
5
10

$$$$
