5364555
  -OEChem-02172602333D

 51 50  0     0  0  0  0  0  0999 V2000
   -1.0633   -2.6057   -0.1474 C   0  0  0  0  0  0  0  0  0  0  0  0
    0.3631   -2.2042    0.2351 C   0  0  0  0  0  0  0  0  0  0  0  0
   -2.0766   -1.5488    0.2954 C   0  0  0  0  0  0  0  0  0  0  0  0
    1.3785   -3.2486   -0.2387 C   0  0  0  0  0  0  0  0  0  0  0  0
    1.8290    1.8333   -0.2381 C   0  0  0  0  0  0  0  0  0  0  0  0
    0.9352    2.9631    0.2838 C   0  0  0  0  0  0  0  0  0  0  0  0
    3.2802    1.9350    0.2434 C   0  0  0  0  0  0  0  0  0  0  0  0
   -3.4983   -1.9339   -0.1163 C   0  0  0  0  0  0  0  0  0  0  0  0
    2.8236   -2.9098    0.1410 C   0  0  0  0  0  0  0  0  0  0  0  0
   -0.5101    2.9603   -0.2244 C   0  0  0  0  0  0  0  0  0  0  0  0
    4.1449    0.7539   -0.2115 C   0  0  0  0  0  0  0  0  0  0  0  0
   -4.5063   -0.8618    0.2968 C   0  0  0  0  0  0  0  0  0  0  0  0
   -1.3800    4.1281    0.2459 C   0  0  0  0  0  0  0  0  0  0  0  0
    3.2929   -1.5965   -0.4159 C   0  0  0  0  0  0  0  0  0  0  0  0
    3.6816   -0.5618    0.3439 C   0  0  0  0  0  0  0  0  0  0  0  0
   -5.9164   -1.2249   -0.1405 C   0  0  0  0  0  0  0  0  0  0  0  0
   -2.7780    4.1222   -0.3523 C   0  0  0  0  0  0  0  0  0  0  0  0
   -1.3111   -3.5693    0.3140 H   0  0  0  0  0  0  0  0  0  0  0  0
   -1.1265   -2.7414   -1.2340 H   0  0  0  0  0  0  0  0  0  0  0  0
    0.5848   -1.2343   -0.2205 H   0  0  0  0  0  0  0  0  0  0  0  0
    0.4365   -2.0825    1.3222 H   0  0  0  0  0  0  0  0  0  0  0  0
   -2.0284   -1.4251    1.3841 H   0  0  0  0  0  0  0  0  0  0  0  0
   -1.8155   -0.5817   -0.1515 H   0  0  0  0  0  0  0  0  0  0  0  0
    1.3063   -3.3569   -1.3285 H   0  0  0  0  0  0  0  0  0  0  0  0
    1.1250   -4.2253    0.1917 H   0  0  0  0  0  0  0  0  0  0  0  0
    1.8117    1.8337   -1.3347 H   0  0  0  0  0  0  0  0  0  0  0  0
    1.3897    0.8858    0.0878 H   0  0  0  0  0  0  0  0  0  0  0  0
    1.3940    3.9225    0.0129 H   0  0  0  0  0  0  0  0  0  0  0  0
    0.9214    2.9267    1.3803 H   0  0  0  0  0  0  0  0  0  0  0  0
    3.2979    2.0005    1.3386 H   0  0  0  0  0  0  0  0  0  0  0  0
    3.7222    2.8643   -0.1360 H   0  0  0  0  0  0  0  0  0  0  0  0
   -3.7689   -2.8917    0.3444 H   0  0  0  0  0  0  0  0  0  0  0  0
   -3.5394   -2.0752   -1.2033 H   0  0  0  0  0  0  0  0  0  0  0  0
    3.4838   -3.6997   -0.2369 H   0  0  0  0  0  0  0  0  0  0  0  0
    2.9184   -2.9224    1.2339 H   0  0  0  0  0  0  0  0  0  0  0  0
   -0.9866    2.0187    0.0761 H   0  0  0  0  0  0  0  0  0  0  0  0
   -0.4900    2.9588   -1.3217 H   0  0  0  0  0  0  0  0  0  0  0  0
    4.1735    0.7275   -1.3078 H   0  0  0  0  0  0  0  0  0  0  0  0
    5.1753    0.9220    0.1237 H   0  0  0  0  0  0  0  0  0  0  0  0
   -4.2299    0.1013   -0.1484 H   0  0  0  0  0  0  0  0  0  0  0  0
   -4.4876   -0.7331    1.3853 H   0  0  0  0  0  0  0  0  0  0  0  0
   -1.4576    4.1028    1.3392 H   0  0  0  0  0  0  0  0  0  0  0  0
   -0.8890    5.0729   -0.0159 H   0  0  0  0  0  0  0  0  0  0  0  0
    3.3087   -1.5019   -1.4988 H   0  0  0  0  0  0  0  0  0  0  0  0
    3.6704   -0.6590    1.4267 H   0  0  0  0  0  0  0  0  0  0  0  0
   -6.2363   -2.1691    0.3117 H   0  0  0  0  0  0  0  0  0  0  0  0
   -5.9758   -1.3271   -1.2288 H   0  0  0  0  0  0  0  0  0  0  0  0
   -6.6209   -0.4453    0.1663 H   0  0  0  0  0  0  0  0  0  0  0  0
   -2.7359    4.1895   -1.4439 H   0  0  0  0  0  0  0  0  0  0  0  0
   -3.3122    3.2050   -0.0851 H   0  0  0  0  0  0  0  0  0  0  0  0
   -3.3549    4.9743    0.0202 H   0  0  0  0  0  0  0  0  0  0  0  0
  1  2  1  0  0  0  0
  1  3  1  0  0  0  0
  1 18  1  0  0  0  0
  1 19  1  0  0  0  0
  2  4  1  0  0  0  0
  2 20  1  0  0  0  0
  2 21  1  0  0  0  0
  3  8  1  0  0  0  0
  3 22  1  0  0  0  0
  3 23  1  0  0  0  0
  4  9  1  0  0  0  0
  4 24  1  0  0  0  0
  4 25  1  0  0  0  0
  5  6  1  0  0  0  0
  5  7  1  0  0  0  0
  5 26  1  0  0  0  0
  5 27  1  0  0  0  0
  6 10  1  0  0  0  0
  6 28  1  0  0  0  0
  6 29  1  0  0  0  0
  7 11  1  0  0  0  0
  7 30  1  0  0  0  0
  7 31  1  0  0  0  0
  8 12  1  0  0  0  0
  8 32  1  0  0  0  0
  8 33  1  0  0  0  0
  9 14  1  0  0  0  0
  9 34  1  0  0  0  0
  9 35  1  0  0  0  0
 10 13  1  0  0  0  0
 10 36  1  0  0  0  0
 10 37  1  0  0  0  0
 11 15  1  0  0  0  0
 11 38  1  0  0  0  0
 11 39  1  0  0  0  0
 12 16  1  0  0  0  0
 12 40  1  0  0  0  0
 12 41  1  0  0  0  0
 13 17  1  0  0  0  0
 13 42  1  0  0  0  0
 13 43  1  0  0  0  0
 14 15  2  0  0  0  0
 14 44  1  0  0  0  0
 15 45  1  0  0  0  0
 16 46  1  0  0  0  0
 16 47  1  0  0  0  0
 16 48  1  0  0  0  0
 17 49  1  0  0  0  0
 17 50  1  0  0  0  0
 17 51  1  0  0  0  0
M  END
> <PUBCHEM_COMPOUND_CID>
5364555

> <PUBCHEM_CONFORMER_RMSD>
1.2

> <PUBCHEM_CONFORMER_DIVERSEORDER>
1
86
68
82
84
37
2
60
17
26
44
61
19
57
3
31
21
29
42
38
16
25
50
77
91
54
10
13
6
40
78
80
43
35
48
96
64
33
59
70
15
95
39
8
62
18
72
93
4
28
36
30
63
66
9
79
53
69
75
81
55
47
90
65
12
89
41
88
32
45
34
52
92
7
83
22
24
27
76
71
74
73
5
49
85
14
58
46
11
56
94
51
20
23
67
87

> <PUBCHEM_MMFF94_PARTIAL_CHARGES>
6
11 0.14
14 -0.29
15 -0.29
44 0.15
45 0.15
9 0.14

> <PUBCHEM_EFFECTIVE_ROTOR_COUNT>
13

> <PUBCHEM_PHARMACOPHORE_FEATURES>
2
1 16 hydrophobe
1 17 hydrophobe

> <PUBCHEM_HEAVY_ATOM_COUNT>
17

> <PUBCHEM_ATOM_DEF_STEREO_COUNT>
0

> <PUBCHEM_ATOM_UDEF_STEREO_COUNT>
0

> <PUBCHEM_BOND_DEF_STEREO_COUNT>
1

> <PUBCHEM_BOND_UDEF_STEREO_COUNT>
0

> <PUBCHEM_ISOTOPIC_ATOM_COUNT>
0

> <PUBCHEM_COMPONENT_COUNT>
1

> <PUBCHEM_CACTVS_TAUTO_COUNT>
1

> <PUBCHEM_CONFORMER_ID>
0051DB4B00000001

> <PUBCHEM_MMFF94_ENERGY>
-5.141

> <PUBCHEM_FEATURE_SELFOVERLAP>
10.149

> <PUBCHEM_SHAPE_FINGERPRINT>
1100329 8 17689431590225722238
11273773 38 17830740115900556668
12038231 1 18194402186617002040
13075007 39 17679603369866544939
14681490 219 18410566306594049037
15003188 8 17981876746850549320
15483637 11 18265614269805330669
16760501 71 18339091505332913715
17093844 170 18268143330910861256
19930381 70 18050001392286035595
20621476 13 18122062275952212785
20621476 7 18411146822409718907
21344244 78 18045189735908535610
22113638 7 17980758556283148678
3014063 31 18410573976709307189
338550 245 18190472566635808269
5939293 188 18051128400431428234
6443956 14 18336829817675844037
653340 110 18341041935306210832

> <PUBCHEM_SHAPE_MULTIPOLES>
349.85
9.41
6.57
0.68
8.91
5.95
0
-3.84
0.13
2
0.18
-0.03
0.02
0.29

> <PUBCHEM_SHAPE_SELFOVERLAP>
628.392

> <PUBCHEM_SHAPE_VOLUME>
224.1

> <PUBCHEM_COORDINATE_TYPE>
2
5
10

$$$$
