71357574
  -OEChem-02172602233D

 22 24  0     0  0  0  0  0  0999 V2000
    3.1586    0.9893   -0.0012 O   0  0  0  0  0  0  0  0  0  0  0  0
   -1.6533    1.3492   -0.0152 O   0  0  0  0  0  0  0  0  0  0  0  0
    0.7609    2.6431   -0.0322 O   0  0  0  0  0  0  0  0  0  0  0  0
   -1.9270   -2.8245   -0.0341 O   0  0  0  0  0  0  0  0  0  0  0  0
   -3.9374    1.4647    0.0544 O   0  0  0  0  0  0  0  0  0  0  0  0
   -0.5474   -0.8358   -0.0131 C   0  0  0  0  0  0  0  0  0  0  0  0
    1.8904   -0.8794    0.0127 C   0  0  0  0  0  0  0  0  0  0  0  0
   -0.4753    0.5630   -0.0209 C   0  0  0  0  0  0  0  0  0  0  0  0
    1.8829    0.5099   -0.0062 C   0  0  0  0  0  0  0  0  0  0  0  0
    0.6568   -1.5649    0.0123 C   0  0  0  0  0  0  0  0  0  0  0  0
    0.7270    1.2814   -0.0223 C   0  0  0  0  0  0  0  0  0  0  0  0
   -1.8824   -1.4481   -0.0170 C   0  0  0  0  0  0  0  0  0  0  0  0
    3.2594   -1.2574    0.0315 C   0  0  0  0  0  0  0  0  0  0  0  0
    3.9848   -0.0888    0.0211 C   0  0  0  0  0  0  0  0  0  0  0  0
   -2.9793   -0.6854    0.0086 C   0  0  0  0  0  0  0  0  0  0  0  0
   -2.9187    0.7838    0.0216 C   0  0  0  0  0  0  0  0  0  0  0  0
    0.6521   -2.6516    0.0275 H   0  0  0  0  0  0  0  0  0  0  0  0
    3.6661   -2.2586    0.0499 H   0  0  0  0  0  0  0  0  0  0  0  0
    5.0418    0.1336    0.0277 H   0  0  0  0  0  0  0  0  0  0  0  0
   -3.9688   -1.1312    0.0150 H   0  0  0  0  0  0  0  0  0  0  0  0
    1.6936    2.9205   -0.0289 H   0  0  0  0  0  0  0  0  0  0  0  0
   -2.8609   -3.0973   -0.0303 H   0  0  0  0  0  0  0  0  0  0  0  0
  1  9  1  0  0  0  0
  1 14  1  0  0  0  0
  2  8  1  0  0  0  0
  2 16  1  0  0  0  0
  3 11  1  0  0  0  0
  3 21  1  0  0  0  0
  4 12  1  0  0  0  0
  4 22  1  0  0  0  0
  5 16  2  0  0  0  0
  6  8  2  0  0  0  0
  6 10  1  0  0  0  0
  6 12  1  0  0  0  0
  7  9  1  0  0  0  0
  7 10  2  0  0  0  0
  7 13  1  0  0  0  0
  8 11  1  0  0  0  0
  9 11  2  0  0  0  0
 10 17  1  0  0  0  0
 12 15  2  0  0  0  0
 13 14  2  0  0  0  0
 13 18  1  0  0  0  0
 14 19  1  0  0  0  0
 15 16  1  0  0  0  0
 15 20  1  0  0  0  0
M  END
> <PUBCHEM_COMPOUND_CID>
71357574

> <PUBCHEM_CONFORMER_RMSD>
0.4

> <PUBCHEM_CONFORMER_DIVERSEORDER>
1

> <PUBCHEM_MMFF94_PARTIAL_CHARGES>
21
1 -0.28
10 -0.15
11 0.08
12 0.05
13 -0.15
14 -0.01
15 -0.14
16 0.71
17 0.15
18 0.15
19 0.15
2 -0.23
20 0.15
21 0.45
22 0.45
3 -0.53
4 -0.53
5 -0.57
6 0.03
8 0.08
9 0.14

> <PUBCHEM_EFFECTIVE_ROTOR_COUNT>
0

> <PUBCHEM_PHARMACOPHORE_FEATURES>
7
1 1 acceptor
1 3 donor
1 4 donor
1 5 acceptor
5 1 7 9 13 14 rings
6 2 6 8 12 15 16 rings
6 6 7 8 9 10 11 rings

> <PUBCHEM_HEAVY_ATOM_COUNT>
16

> <PUBCHEM_ATOM_DEF_STEREO_COUNT>
0

> <PUBCHEM_ATOM_UDEF_STEREO_COUNT>
0

> <PUBCHEM_BOND_DEF_STEREO_COUNT>
0

> <PUBCHEM_BOND_UDEF_STEREO_COUNT>
0

> <PUBCHEM_ISOTOPIC_ATOM_COUNT>
0

> <PUBCHEM_COMPONENT_COUNT>
1

> <PUBCHEM_CACTVS_TAUTO_COUNT>
3

> <PUBCHEM_CONFORMER_ID>
0440D48600000001

> <PUBCHEM_MMFF94_ENERGY>
40.0477

> <PUBCHEM_FEATURE_SELFOVERLAP>
35.65

> <PUBCHEM_SHAPE_FINGERPRINT>
10608611 8 18412541050240383304
10967382 1 18338516313814693870
11132069 177 18410851049518560808
11471102 20 18338511945838326213
12032990 46 18411143511021802886
12251169 10 18410860996657621483
12382932 28 18412263908838039242
13140716 1 18410289246253037376
13214271 11 18343294903535155398
13221675 6 18408603643182210131
13380535 76 18341611473628557687
14115302 16 18334587810624808308
14144814 61 18410292505911564755
14325111 11 18410575089042552680
15196674 1 18410573980861778082
15309172 13 18339369552476627451
15375462 189 18040712524485546658
15442244 35 18410572885850871962
15536298 74 18343020025681056192
15775835 57 18334016060040719499
16945 1 18338517576566883311
17804303 29 18413111653983534724
193761 8 18122344845961013068
20510252 161 18128534851702369056
20588541 1 18341614754925211678
21267235 1 18410583893683688234
21501502 16 18264773335949926196
2334 1 18194683897822026316
23402539 116 18271795775014148998
23402655 69 18270105804964343789
23463225 33 18408322159963672470
23559900 14 18342457020372971518
2748010 2 18412262861140299566
3312278 4 18412267254770491618
335352 9 18266740182111356630
34934 24 18409721846845255474
5104073 3 18410292514506677506
528886 8 18411694361899234306
53812653 166 18341608209426785696
69090 78 18411976936630276191
7364860 26 18125721433564956496
74978 22 18410571833568027693
7832392 63 18411697698935777370
8809292 202 18334580165314314162
9709674 26 18342461451835566870

> <PUBCHEM_SHAPE_MULTIPOLES>
299.93
6.02
2.31
0.59
0.6
0.13
0
-0.31
-0.09
-0.84
0.02
0.02
0.02
-0.04

> <PUBCHEM_SHAPE_SELFOVERLAP>
680.769

> <PUBCHEM_SHAPE_VOLUME>
157.4

> <PUBCHEM_COORDINATE_TYPE>
2
5
10

$$$$
