10408544
  -OEChem-02172602453D

 38 40  0     0  0  0  0  0  0999 V2000
    4.7522    3.4627   -0.2727 Cl  0  0  0  0  0  0  0  0  0  0  0  0
   -2.5933   -1.2091   -1.8188 Cl  0  0  0  0  0  0  0  0  0  0  0  0
    0.2946    0.1009    1.8979 S   0  0  0  0  0  0  0  0  0  0  0  0
    0.3874   -0.8681    2.9866 O   0  0  0  0  0  0  0  0  0  0  0  0
    0.7241    1.4801    2.1026 O   0  0  0  0  0  0  0  0  0  0  0  0
   -0.5788   -2.7509    1.1617 O   0  0  0  0  0  0  0  0  0  0  0  0
    2.2507   -1.7822   -0.8763 N   0  0  0  0  0  0  0  0  0  0  0  0
   -1.3357    0.1240    1.3329 N   0  0  0  0  0  0  0  0  0  0  0  0
    0.4673   -3.9517   -0.4552 N   0  0  0  0  0  0  0  0  0  0  0  0
    1.3227   -0.4788    0.6620 C   0  0  0  0  0  0  0  0  0  0  0  0
    2.4077    0.2299    0.0744 C   0  0  0  0  0  0  0  0  0  0  0  0
    2.9726   -0.6100   -0.8877 C   0  0  0  0  0  0  0  0  0  0  0  0
    1.2514   -1.7123    0.0568 C   0  0  0  0  0  0  0  0  0  0  0  0
    2.9651    1.5093    0.2692 C   0  0  0  0  0  0  0  0  0  0  0  0
   -1.6409    0.9587    0.1550 C   0  0  0  0  0  0  0  0  0  0  0  0
    4.0714   -0.2328   -1.6680 C   0  0  0  0  0  0  0  0  0  0  0  0
    0.3324   -2.7803    0.3010 C   0  0  0  0  0  0  0  0  0  0  0  0
   -3.1003    0.9263   -0.2032 C   0  0  0  0  0  0  0  0  0  0  0  0
    4.0643    1.9001   -0.5040 C   0  0  0  0  0  0  0  0  0  0  0  0
    4.6073    1.0409   -1.4572 C   0  0  0  0  0  0  0  0  0  0  0  0
   -3.6077   -0.0203   -1.0863 C   0  0  0  0  0  0  0  0  0  0  0  0
   -3.9368    1.8750    0.3754 C   0  0  0  0  0  0  0  0  0  0  0  0
   -4.9680   -0.0183   -1.3948 C   0  0  0  0  0  0  0  0  0  0  0  0
   -5.2971    1.8768    0.0670 C   0  0  0  0  0  0  0  0  0  0  0  0
   -5.8127    0.9301   -0.8181 C   0  0  0  0  0  0  0  0  0  0  0  0
    2.4424   -2.5719   -1.4763 H   0  0  0  0  0  0  0  0  0  0  0  0
   -1.7851   -0.8012    1.2966 H   0  0  0  0  0  0  0  0  0  0  0  0
    2.5787    2.2074    1.0024 H   0  0  0  0  0  0  0  0  0  0  0  0
   -1.0224    0.6529   -0.6945 H   0  0  0  0  0  0  0  0  0  0  0  0
   -1.3483    1.9938    0.3724 H   0  0  0  0  0  0  0  0  0  0  0  0
    4.4947   -0.9012   -2.4102 H   0  0  0  0  0  0  0  0  0  0  0  0
    5.4618    1.3510   -2.0550 H   0  0  0  0  0  0  0  0  0  0  0  0
   -3.5495    2.6168    1.0686 H   0  0  0  0  0  0  0  0  0  0  0  0
    1.1739   -4.0819   -1.1705 H   0  0  0  0  0  0  0  0  0  0  0  0
   -0.1633   -4.7322   -0.3033 H   0  0  0  0  0  0  0  0  0  0  0  0
   -5.3856   -0.7493   -2.0825 H   0  0  0  0  0  0  0  0  0  0  0  0
   -5.9550    2.6148    0.5165 H   0  0  0  0  0  0  0  0  0  0  0  0
   -6.8719    0.9316   -1.0581 H   0  0  0  0  0  0  0  0  0  0  0  0
  1 19  1  0  0  0  0
  2 21  1  0  0  0  0
  3  4  2  0  0  0  0
  3  5  2  0  0  0  0
  3  8  1  0  0  0  0
  3 10  1  0  0  0  0
  6 17  2  0  0  0  0
  7 12  1  0  0  0  0
  7 13  1  0  0  0  0
  7 26  1  0  0  0  0
  8 15  1  0  0  0  0
  8 27  1  0  0  0  0
  9 17  1  0  0  0  0
  9 34  1  0  0  0  0
  9 35  1  0  0  0  0
 10 11  1  0  0  0  0
 10 13  2  0  0  0  0
 11 12  2  0  0  0  0
 11 14  1  0  0  0  0
 12 16  1  0  0  0  0
 13 17  1  0  0  0  0
 14 19  2  0  0  0  0
 14 28  1  0  0  0  0
 15 18  1  0  0  0  0
 15 29  1  0  0  0  0
 15 30  1  0  0  0  0
 16 20  2  0  0  0  0
 16 31  1  0  0  0  0
 18 21  1  0  0  0  0
 18 22  2  0  0  0  0
 19 20  1  0  0  0  0
 20 32  1  0  0  0  0
 21 23  2  0  0  0  0
 22 24  1  0  0  0  0
 22 33  1  0  0  0  0
 23 25  1  0  0  0  0
 23 36  1  0  0  0  0
 24 25  2  0  0  0  0
 24 37  1  0  0  0  0
 25 38  1  0  0  0  0
M  END
> <PUBCHEM_COMPOUND_CID>
10408544

> <PUBCHEM_CONFORMER_RMSD>
0.8

> <PUBCHEM_CONFORMER_DIVERSEORDER>
1
43
185
183
16
144
84
160
193
178
32
135
136
132
79
168
130
190
139
121
73
128
166
129
65
23
81
171
95
141
17
174
116
108
179
195
197
125
33
5
104
70
140
153
152
15
204
47
198
192
14
176
142
44
127
169
6
172
156
175
145
151
164
113
92
76
90
78
147
180
48
57
158
62
202
122
91
34
24
98
53
203
149
20
40
75
41
138
13
60
167
71
109
201
159
49
137
19
101
148
184
82
126
42
38
68
194
170
182
165
56
199
161
59
186
188
72
111
9
163
63
155
105
117
118
181
96
187
3
177
77
54
107
119
103
200
86
115
50
21
69
150
124
120
89
8
83
191
131
123
51
36
29
110
55
112
133
173
64
10
99
114
93
157
27
39
106
143
52
196
85
80
146
46
37
102
88
31
189
100
61
66
30
94
26
87
2
67
35
162
74
11
97
134
58
22
45
25
154
12
4
7
18
28

> <PUBCHEM_MMFF94_PARTIAL_CHARGES>
35
1 -0.18
10 -0.06
12 -0.15
13 -0.24
14 -0.15
15 0.5
16 -0.15
17 0.71
18 -0.14
19 0.18
2 -0.18
20 -0.15
21 0.18
22 -0.15
23 -0.15
24 -0.15
25 -0.15
26 0.27
27 0.42
28 0.15
3 1.5
31 0.15
32 0.15
33 0.15
34 0.37
35 0.37
36 0.15
37 0.15
38 0.15
4 -0.65
5 -0.65
6 -0.57
7 0.03
8 -0.91
9 -0.8

> <PUBCHEM_EFFECTIVE_ROTOR_COUNT>
5

> <PUBCHEM_PHARMACOPHORE_FEATURES>
10
1 4 acceptor
1 5 acceptor
1 6 acceptor
1 7 cation
1 7 donor
1 8 donor
1 9 donor
5 7 10 11 12 13 rings
6 11 12 14 16 19 20 rings
6 18 21 22 23 24 25 rings

> <PUBCHEM_HEAVY_ATOM_COUNT>
25

> <PUBCHEM_ATOM_DEF_STEREO_COUNT>
0

> <PUBCHEM_ATOM_UDEF_STEREO_COUNT>
0

> <PUBCHEM_BOND_DEF_STEREO_COUNT>
0

> <PUBCHEM_BOND_UDEF_STEREO_COUNT>
0

> <PUBCHEM_ISOTOPIC_ATOM_COUNT>
0

> <PUBCHEM_COMPONENT_COUNT>
1

> <PUBCHEM_CACTVS_TAUTO_COUNT>
5

> <PUBCHEM_CONFORMER_ID>
009ED26000000001

> <PUBCHEM_MMFF94_ENERGY>
51.6402

> <PUBCHEM_FEATURE_SELFOVERLAP>
50.861

> <PUBCHEM_SHAPE_FINGERPRINT>
10498660 4 18334292080736057565
10764073 3 12181771306118955538
11578080 2 18116445924114889692
11725454 13 17603870009266310650
11961588 58 18189607409681701817
12363563 72 14333410038556786633
12730499 353 18262532411362550393
12788726 201 16987725580662562569
12892183 10 11746939814831123348
13103583 49 10665492011884970772
13544653 18 12175904337821776010
13617811 41 18341032091911328253
13911852 28 9511195018216341109
14251764 30 8357997597006325656
14528608 73 18410573976983958421
15885798 251 10303818678492386502
16752209 62 16629395827823242577
17909252 39 16487260945930029860
17980427 23 17174291795415240328
19319366 153 18342450418375793879
20775530 9 13612591050458227100
23559900 14 17979903931370360031
238 59 18339370660288370594
2637199 183 18201436948311974319
2838139 119 18186516635700380620
3004659 81 17775005631291435580
340366 18 17116922414230854665
345986 75 11239453539893173956
427121 178 16660368051905979634
469060 322 15792300427001998915
474 4 18186804690318737661
58260988 393 17024317542130163491
6823239 73 16271629153491314575

> <PUBCHEM_SHAPE_MULTIPOLES>
489.53
10.97
3.3
1.91
7.83
1.61
0.92
-9.64
-6.12
-2.22
0.07
-0.18
0.36
-0.45

> <PUBCHEM_SHAPE_SELFOVERLAP>
1038.721

> <PUBCHEM_SHAPE_VOLUME>
275.8

> <PUBCHEM_COORDINATE_TYPE>
2
5
10

$$$$
