20224800
  -OEChem-02172602333D

 34 33  0     1  0  0  0  0  0999 V2000
   -5.5779   -1.0767   -0.3760 O   0  0  0  0  0  0  0  0  0  0  0  0
    3.4123    0.1089    0.1680 C   0  0  1  0  0  0  0  0  0  0  0  0
    2.0470   -0.5384   -0.1390 C   0  0  0  0  0  0  0  0  0  0  0  0
    0.8587    0.3704    0.1940 C   0  0  0  0  0  0  0  0  0  0  0  0
   -0.4722   -0.3269   -0.1030 C   0  0  0  0  0  0  0  0  0  0  0  0
    4.5640   -0.8993   -0.0281 C   0  0  0  0  0  0  0  0  0  0  0  0
   -1.6588    0.5689    0.2589 C   0  0  0  0  0  0  0  0  0  0  0  0
    3.6419    1.3877   -0.6424 C   0  0  0  0  0  0  0  0  0  0  0  0
   -3.0207   -0.0907    0.0117 C   0  0  0  0  0  0  0  0  0  0  0  0
    5.9534   -0.3773    0.3121 C   0  0  0  0  0  0  0  0  0  0  0  0
   -4.2263    0.8034    0.2866 C   0  0  0  0  0  0  0  0  0  0  0  0
   -5.5213    0.0699    0.0572 C   0  0  0  0  0  0  0  0  0  0  0  0
    3.4110    0.3945    1.2289 H   0  0  0  0  0  0  0  0  0  0  0  0
    2.0063   -0.8195   -1.1989 H   0  0  0  0  0  0  0  0  0  0  0  0
    1.9542   -1.4674    0.4378 H   0  0  0  0  0  0  0  0  0  0  0  0
    0.9011    1.2912   -0.3966 H   0  0  0  0  0  0  0  0  0  0  0  0
    0.9003    0.6559    1.2519 H   0  0  0  0  0  0  0  0  0  0  0  0
   -0.5224   -0.5923   -1.1658 H   0  0  0  0  0  0  0  0  0  0  0  0
   -0.5342   -1.2611    0.4679 H   0  0  0  0  0  0  0  0  0  0  0  0
    4.3690   -1.7781    0.5995 H   0  0  0  0  0  0  0  0  0  0  0  0
    4.5675   -1.2546   -1.0662 H   0  0  0  0  0  0  0  0  0  0  0  0
   -1.5915    0.8564    1.3154 H   0  0  0  0  0  0  0  0  0  0  0  0
   -1.6014    1.4956   -0.3255 H   0  0  0  0  0  0  0  0  0  0  0  0
    2.8749    2.1403   -0.4396 H   0  0  0  0  0  0  0  0  0  0  0  0
    3.6389    1.1775   -1.7171 H   0  0  0  0  0  0  0  0  0  0  0  0
    4.5971    1.8578   -0.3905 H   0  0  0  0  0  0  0  0  0  0  0  0
   -3.0606   -0.4328   -1.0309 H   0  0  0  0  0  0  0  0  0  0  0  0
   -3.0892   -0.9945    0.6311 H   0  0  0  0  0  0  0  0  0  0  0  0
    6.2866    0.3791   -0.4043 H   0  0  0  0  0  0  0  0  0  0  0  0
    6.6786   -1.1971    0.2819 H   0  0  0  0  0  0  0  0  0  0  0  0
    5.9746    0.0570    1.3164 H   0  0  0  0  0  0  0  0  0  0  0  0
   -4.2135    1.6818   -0.3666 H   0  0  0  0  0  0  0  0  0  0  0  0
   -4.2158    1.1457    1.3265 H   0  0  0  0  0  0  0  0  0  0  0  0
   -6.4382    0.6369    0.2907 H   0  0  0  0  0  0  0  0  0  0  0  0
  1 12  2  0  0  0  0
  2  3  1  0  0  0  0
  2  6  1  0  0  0  0
  2  8  1  0  0  0  0
  2 13  1  0  0  0  0
  3  4  1  0  0  0  0
  3 14  1  0  0  0  0
  3 15  1  0  0  0  0
  4  5  1  0  0  0  0
  4 16  1  0  0  0  0
  4 17  1  0  0  0  0
  5  7  1  0  0  0  0
  5 18  1  0  0  0  0
  5 19  1  0  0  0  0
  6 10  1  0  0  0  0
  6 20  1  0  0  0  0
  6 21  1  0  0  0  0
  7  9  1  0  0  0  0
  7 22  1  0  0  0  0
  7 23  1  0  0  0  0
  8 24  1  0  0  0  0
  8 25  1  0  0  0  0
  8 26  1  0  0  0  0
  9 11  1  0  0  0  0
  9 27  1  0  0  0  0
  9 28  1  0  0  0  0
 10 29  1  0  0  0  0
 10 30  1  0  0  0  0
 10 31  1  0  0  0  0
 11 12  1  0  0  0  0
 11 32  1  0  0  0  0
 11 33  1  0  0  0  0
 12 34  1  0  0  0  0
M  END
> <PUBCHEM_COMPOUND_CID>
20224800

> <PUBCHEM_CONFORMER_RMSD>
0.8

> <PUBCHEM_CONFORMER_DIVERSEORDER>
1
127
46
221
111
187
38
19
82
49
237
66
112
123
3
78
68
191
77
217
125
11
114
2
136
230
124
8
220
118
47
75
50
180
33
162
54
72
249
97
5
69
117
234
60
144
13
65
146
154
95
98
62
159
63
115
128
198
39
23
216
110
106
243
73
52
42
37
10
31
140
20
35
25
12
247
189
161
139
143
70
133
91
210
80
24
250
218
185
15
211
43
167
251
119
212
105
222
18
153
102
89
244
165
55
229
147
30
29
235
108
64
17
61
169
213
59
228
208
22
137
172
176
16
196
6
236
150
120
7
81
205
246
173
207
57
184
87
130
99
41
223
14
74
232
4
164
194
88
155
71
241
170
248
202
32
195
186
122
242
27
107
149
182
40
45
231
26
28
245
21
152
206
96
58
44
219
113
160
126
233
101
56
92
225
34
51
201
141
86
209
214
109
175
148
48
36
204
76
192
171
190
85
163
156
181
238
240
183
142
100
168
67
79
138
226
239
90
145
53
104
116
121
174
9
200
166
135
203
177
134
157
129
103
131
193
224
93
215
199
94
151
188
83
84
227
132
158
197
179
178

> <PUBCHEM_MMFF94_PARTIAL_CHARGES>
4
1 -0.57
11 0.06
12 0.45
34 0.06

> <PUBCHEM_EFFECTIVE_ROTOR_COUNT>
8

> <PUBCHEM_PHARMACOPHORE_FEATURES>
3
1 1 acceptor
1 10 hydrophobe
1 8 hydrophobe

> <PUBCHEM_HEAVY_ATOM_COUNT>
12

> <PUBCHEM_ATOM_DEF_STEREO_COUNT>
0

> <PUBCHEM_ATOM_UDEF_STEREO_COUNT>
1

> <PUBCHEM_BOND_DEF_STEREO_COUNT>
0

> <PUBCHEM_BOND_UDEF_STEREO_COUNT>
0

> <PUBCHEM_ISOTOPIC_ATOM_COUNT>
0

> <PUBCHEM_COMPONENT_COUNT>
1

> <PUBCHEM_CACTVS_TAUTO_COUNT>
2

> <PUBCHEM_CONFORMER_ID>
01349B2000000001

> <PUBCHEM_MMFF94_ENERGY>
4.9519

> <PUBCHEM_FEATURE_SELFOVERLAP>
15.224

> <PUBCHEM_SHAPE_FINGERPRINT>
11287383 113 18411982481111146075
12091667 2 17967534554206243937
12815109 37 8718825392406342470
13533116 47 16660633021661073600
14123238 8 18407478860209399085
1420 363 17060341824774261511
14251718 22 18272369784714157067
15242439 84 16587746438399253928
15501527 16 8214153967059263015
17834072 33 18412263969173251189
17834072 8 14201398291986184879
17834076 25 18410293605391413963
20645477 56 13686292457170466481
20645477 70 18337392647766086126
20719005 15 18410856555350103537
20767249 13 18409449185009437441
23402539 116 18409444770062833573
23557571 272 16009025038691915295
42788 4 18411418405839428352
522135 26 18040437685750077580
57483677 66 18412823568873216719
8209 1 18410573976566791303

> <PUBCHEM_SHAPE_MULTIPOLES>
241.09
15
1.05
0.68
5.39
0.14
0.01
-2.2
-0.05
-0.34
0.12
-0.11
0.04
-0.54

> <PUBCHEM_SHAPE_SELFOVERLAP>
432.822

> <PUBCHEM_SHAPE_VOLUME>
155.6

> <PUBCHEM_COORDINATE_TYPE>
2
5
10

$$$$
