85788
  -OEChem-03052615073D

 35 34  0     1  0  0  0  0  0999 V2000
    2.4620    0.4140   -0.2302 O   0  0  0  0  0  0  0  0  0  0  0  0
    4.3274    0.6268    1.1159 O   0  0  0  0  0  0  0  0  0  0  0  0
   -0.2932   -0.3547    0.2925 C   0  0  0  0  0  0  0  0  0  0  0  0
   -1.6847   -0.7500   -0.2086 C   0  0  0  0  0  0  0  0  0  0  0  0
   -2.7520    0.2234    0.2958 C   0  0  0  0  0  0  0  0  0  0  0  0
    0.7805   -1.3124   -0.2356 C   0  0  0  0  0  0  0  0  0  0  0  0
   -4.1697   -0.1376   -0.1583 C   0  0  0  0  0  0  0  0  0  0  0  0
    2.1864   -0.9099    0.2189 C   0  0  1  0  0  0  0  0  0  0  0  0
   -5.2771    0.8148    0.2988 C   0  0  0  0  0  0  0  0  0  0  0  0
    3.2399   -1.8510   -0.3500 C   0  0  0  0  0  0  0  0  0  0  0  0
   -6.6554    0.4401   -0.2228 C   0  0  0  0  0  0  0  0  0  0  0  0
    3.6863    0.9131    0.1138 C   0  0  0  0  0  0  0  0  0  0  0  0
    4.1497    1.8834   -0.9302 C   0  0  0  0  0  0  0  0  0  0  0  0
   -0.2800   -0.3584    1.3891 H   0  0  0  0  0  0  0  0  0  0  0  0
   -0.0749    0.6701   -0.0304 H   0  0  0  0  0  0  0  0  0  0  0  0
   -1.9236   -1.7650    0.1307 H   0  0  0  0  0  0  0  0  0  0  0  0
   -1.6935   -0.7643   -1.3051 H   0  0  0  0  0  0  0  0  0  0  0  0
    0.7397   -1.3067   -1.3324 H   0  0  0  0  0  0  0  0  0  0  0  0
    0.5603   -2.3342    0.0960 H   0  0  0  0  0  0  0  0  0  0  0  0
   -2.7282    0.2536    1.3922 H   0  0  0  0  0  0  0  0  0  0  0  0
   -2.5136    1.2356   -0.0537 H   0  0  0  0  0  0  0  0  0  0  0  0
   -4.4068   -1.1484    0.1977 H   0  0  0  0  0  0  0  0  0  0  0  0
   -4.1817   -0.1865   -1.2547 H   0  0  0  0  0  0  0  0  0  0  0  0
    2.2199   -0.9322    1.3156 H   0  0  0  0  0  0  0  0  0  0  0  0
   -5.0381    1.8318   -0.0340 H   0  0  0  0  0  0  0  0  0  0  0  0
   -5.3038    0.8374    1.3946 H   0  0  0  0  0  0  0  0  0  0  0  0
    4.2357   -1.6611    0.0611 H   0  0  0  0  0  0  0  0  0  0  0  0
    3.3187   -1.7401   -1.4374 H   0  0  0  0  0  0  0  0  0  0  0  0
    2.9922   -2.8939   -0.1263 H   0  0  0  0  0  0  0  0  0  0  0  0
   -7.4046    1.1528    0.1356 H   0  0  0  0  0  0  0  0  0  0  0  0
   -6.9434   -0.5590    0.1191 H   0  0  0  0  0  0  0  0  0  0  0  0
   -6.6738    0.4472   -1.3171 H   0  0  0  0  0  0  0  0  0  0  0  0
    3.4438    2.7144   -1.0032 H   0  0  0  0  0  0  0  0  0  0  0  0
    4.2461    1.3737   -1.8922 H   0  0  0  0  0  0  0  0  0  0  0  0
    5.1284    2.2812   -0.6468 H   0  0  0  0  0  0  0  0  0  0  0  0
  1  8  1  0  0  0  0
  1 12  1  0  0  0  0
  2 12  2  0  0  0  0
  3  4  1  0  0  0  0
  3  6  1  0  0  0  0
  3 14  1  0  0  0  0
  3 15  1  0  0  0  0
  4  5  1  0  0  0  0
  4 16  1  0  0  0  0
  4 17  1  0  0  0  0
  5  7  1  0  0  0  0
  5 20  1  0  0  0  0
  5 21  1  0  0  0  0
  6  8  1  0  0  0  0
  6 18  1  0  0  0  0
  6 19  1  0  0  0  0
  7  9  1  0  0  0  0
  7 22  1  0  0  0  0
  7 23  1  0  0  0  0
  8 10  1  0  0  0  0
  8 24  1  0  0  0  0
  9 11  1  0  0  0  0
  9 25  1  0  0  0  0
  9 26  1  0  0  0  0
 10 27  1  0  0  0  0
 10 28  1  0  0  0  0
 10 29  1  0  0  0  0
 11 30  1  0  0  0  0
 11 31  1  0  0  0  0
 11 32  1  0  0  0  0
 12 13  1  0  0  0  0
 13 33  1  0  0  0  0
 13 34  1  0  0  0  0
 13 35  1  0  0  0  0
M  END
> <PUBCHEM_COMPOUND_CID>
85788

> <PUBCHEM_CONFORMER_RMSD>
0.8

> <PUBCHEM_CONFORMER_DIVERSEORDER>
1
49
251
23
6
123
37
230
7
26
145
210
4
73
270
13
75
17
285
287
291
180
121
34
79
200
24
235
185
281
116
32
118
283
53
148
54
213
184
80
177
284
12
233
5
274
276
189
232
271
128
110
22
170
82
217
27
226
243
228
229
77
178
236
166
205
191
211
107
248
72
101
44
280
292
3
114
134
282
18
11
167
38
144
143
201
253
289
173
153
16
244
100
51
93
261
240
127
139
8
65
105
142
68
141
131
15
117
156
2
28
94
242
165
29
125
86
288
135
172
39
268
293
106
193
92
164
290
103
46
87
60
159
186
57
126
269
158
58
40
152
9
277
48
55
30
171
133
212
174
124
45
203
61
218
286
10
258
20
78
187
234
113
150
154
252
275
176
108
214
43
14
64
204
238
181
249
120
215
62
41
76
19
137
221
247
192
273
69
136
168
267
84
222
95
161
279
59
256
160
278
138
239
260
119
102
109
190
241
263
56
25
67
202
104
90
272
91
66
169
195
149
42
31
35
47
129
89
50
223
163
220
33
196
209
132
255
74
71
207
265
250
63
245
227
21
96
198
175
70
188
115
231
36
237
52
162
88
111
146
254
264
206
122
262
151
99
183
83
182
194
97
197
98
130
266
216
225
157
179
259
199
81
155
147
140
219
112
224
246
208
257
85

> <PUBCHEM_MMFF94_PARTIAL_CHARGES>
5
1 -0.43
12 0.66
13 0.06
2 -0.57
8 0.28

> <PUBCHEM_EFFECTIVE_ROTOR_COUNT>
8

> <PUBCHEM_PHARMACOPHORE_FEATURES>
4
1 11 hydrophobe
1 2 acceptor
3 3 4 6 hydrophobe
3 5 7 9 hydrophobe

> <PUBCHEM_HEAVY_ATOM_COUNT>
13

> <PUBCHEM_ATOM_DEF_STEREO_COUNT>
0

> <PUBCHEM_ATOM_UDEF_STEREO_COUNT>
1

> <PUBCHEM_BOND_DEF_STEREO_COUNT>
0

> <PUBCHEM_BOND_UDEF_STEREO_COUNT>
0

> <PUBCHEM_ISOTOPIC_ATOM_COUNT>
0

> <PUBCHEM_COMPONENT_COUNT>
1

> <PUBCHEM_CACTVS_TAUTO_COUNT>
1

> <PUBCHEM_CONFORMER_ID>
00014F1C00000001

> <PUBCHEM_MMFF94_ENERGY>
9.2188

> <PUBCHEM_FEATURE_SELFOVERLAP>
20.308

> <PUBCHEM_SHAPE_FINGERPRINT>
100836 57 18336270123286546940
11287383 113 18334016099312733779
12616999 72 16558754485770312847
13081056 2 18334295323499572101
13167372 99 18270121189431761361
14123238 8 18131068230304617961
14251718 22 17561359608977412863
14251732 16 18334861662731036939
14252887 29 12324230660138665376
14528608 73 18202562899842566861
14774955 27 18261675977350859716
15342168 16 18261116330300862892
17834072 32 18190747629394923676
17834072 33 18060414725447598959
17834076 25 18343864420398594105
20369508 70 9655578491887811806
20605781 2 18408886265031337237
20621476 21 13613665415727458381
20645477 56 18040716978667293023
20645477 70 18201159845290444847
212847 35 18272650134208937320
21652331 79 18409448068566276141
23402539 116 13334735748379192795
23402655 69 18202563982016089319
23532345 1 18334298668931137426
23590187 198 11963390739607290113
270888 7 18119533378261824564
300161 21 18201430385744136543
3060560 45 16486977310621848796
32948 21 12463306764617297771
351380 3 8430321233638544729
3545911 37 18411983563363926223
4047638 21 18407761421570508906
42 15 10737285740839271115
42788 4 18412825755739180827
449060 50 18333450950061685279
449060 62 18411421717512336740
465052 167 8718828708105654353
522135 26 18273215266095707878
5374978 207 17240199923929322173
90127 26 18188501164178267073
94968 8 10159705694357316972

> <PUBCHEM_SHAPE_MULTIPOLES>
255.8
13.81
1.6
0.79
18.62
0
0.03
-5.73
-0.29
-2.42
-0.32
-0.51
-0.14
-0.26

> <PUBCHEM_SHAPE_SELFOVERLAP>
466.433

> <PUBCHEM_SHAPE_VOLUME>
163.4

> <PUBCHEM_COORDINATE_TYPE>
2
5
10

$$$$
