87252445
  -OEChem-03052615053D

 57 56  0     1  0  0  0  0  0999 V2000
   -3.0737   -0.0515    1.3320 O   0  0  0  0  0  0  0  0  0  0  0  0
   -4.5788    2.3931    1.4282 O   0  0  0  0  0  0  0  0  0  0  0  0
    0.0403    2.6268   -1.6788 O   0  0  0  0  0  0  0  0  0  0  0  0
    8.6545   -0.6281   -1.8010 O   0  0  0  0  0  0  0  0  0  0  0  0
    8.5441    0.5873    0.1267 O   0  0  0  0  0  0  0  0  0  0  0  0
   -3.3783    0.7047    0.1616 C   0  0  2  0  0  0  0  0  0  0  0  0
   -2.2084    1.6640   -0.1101 C   0  0  0  0  0  0  0  0  0  0  0  0
   -0.8740    0.9148   -0.2595 C   0  0  0  0  0  0  0  0  0  0  0  0
   -4.7067    1.4604    0.3505 C   0  0  1  0  0  0  0  0  0  0  0  0
    0.3039    1.8698   -0.4961 C   0  0  1  0  0  0  0  0  0  0  0  0
    1.6416    1.1419   -0.6873 C   0  0  0  0  0  0  0  0  0  0  0  0
   -5.9247    0.5733    0.6488 C   0  0  0  0  0  0  0  0  0  0  0  0
    2.0888    0.3426    0.5384 C   0  0  0  0  0  0  0  0  0  0  0  0
   -6.3154   -0.4167   -0.4512 C   0  0  0  0  0  0  0  0  0  0  0  0
    3.4073   -0.3878    0.2695 C   0  0  0  0  0  0  0  0  0  0  0  0
   -7.4961   -1.3125   -0.0721 C   0  0  0  0  0  0  0  0  0  0  0  0
    3.8903   -1.2316    1.4555 C   0  0  0  0  0  0  0  0  0  0  0  0
   -7.7847   -2.3402   -1.1671 C   0  0  0  0  0  0  0  0  0  0  0  0
    5.1963   -2.0008    1.2286 C   0  0  0  0  0  0  0  0  0  0  0  0
   -8.9330   -3.2587   -0.7808 C   0  0  0  0  0  0  0  0  0  0  0  0
    6.3463   -1.1106    0.8529 C   0  0  0  0  0  0  0  0  0  0  0  0
    7.0214   -1.2283   -0.2981 C   0  0  0  0  0  0  0  0  0  0  0  0
    8.1391   -0.3118   -0.5905 C   0  0  0  0  0  0  0  0  0  0  0  0
   -3.4555    0.0051   -0.6781 H   0  0  0  0  0  0  0  0  0  0  0  0
   -2.4213    2.2477   -1.0130 H   0  0  0  0  0  0  0  0  0  0  0  0
   -2.1043    2.3695    0.7236 H   0  0  0  0  0  0  0  0  0  0  0  0
   -0.6936    0.3205    0.6410 H   0  0  0  0  0  0  0  0  0  0  0  0
   -0.9588    0.2211   -1.1054 H   0  0  0  0  0  0  0  0  0  0  0  0
   -4.9079    2.0451   -0.5555 H   0  0  0  0  0  0  0  0  0  0  0  0
    0.3799    2.5753    0.3396 H   0  0  0  0  0  0  0  0  0  0  0  0
    2.4145    1.8781   -0.9442 H   0  0  0  0  0  0  0  0  0  0  0  0
    1.5691    0.4796   -1.5601 H   0  0  0  0  0  0  0  0  0  0  0  0
   -6.7872    1.2234    0.8499 H   0  0  0  0  0  0  0  0  0  0  0  0
   -5.7611    0.0342    1.5907 H   0  0  0  0  0  0  0  0  0  0  0  0
    2.2047    1.0149    1.3965 H   0  0  0  0  0  0  0  0  0  0  0  0
    1.3342   -0.4034    0.8071 H   0  0  0  0  0  0  0  0  0  0  0  0
   -6.5546    0.1378   -1.3667 H   0  0  0  0  0  0  0  0  0  0  0  0
   -5.4567   -1.0569   -0.6828 H   0  0  0  0  0  0  0  0  0  0  0  0
    3.2891   -1.0411   -0.6040 H   0  0  0  0  0  0  0  0  0  0  0  0
    4.1704    0.3553    0.0096 H   0  0  0  0  0  0  0  0  0  0  0  0
   -8.3849   -0.6946    0.1031 H   0  0  0  0  0  0  0  0  0  0  0  0
   -7.2730   -1.8324    0.8676 H   0  0  0  0  0  0  0  0  0  0  0  0
    3.1083   -1.9541    1.7211 H   0  0  0  0  0  0  0  0  0  0  0  0
    4.0115   -0.5753    2.3272 H   0  0  0  0  0  0  0  0  0  0  0  0
   -3.7059   -0.7881    1.3806 H   0  0  0  0  0  0  0  0  0  0  0  0
   -8.0323   -1.8264   -2.1033 H   0  0  0  0  0  0  0  0  0  0  0  0
   -6.8908   -2.9460   -1.3559 H   0  0  0  0  0  0  0  0  0  0  0  0
   -5.3976    2.9164    1.4638 H   0  0  0  0  0  0  0  0  0  0  0  0
    0.7670    3.2636   -1.7877 H   0  0  0  0  0  0  0  0  0  0  0  0
    5.4581   -2.5371    2.1485 H   0  0  0  0  0  0  0  0  0  0  0  0
    5.0302   -2.7637    0.4580 H   0  0  0  0  0  0  0  0  0  0  0  0
   -8.7012   -3.8132    0.1342 H   0  0  0  0  0  0  0  0  0  0  0  0
   -9.8522   -2.6882   -0.6137 H   0  0  0  0  0  0  0  0  0  0  0  0
   -9.1232   -3.9838   -1.5783 H   0  0  0  0  0  0  0  0  0  0  0  0
    6.6219   -0.3492    1.5785 H   0  0  0  0  0  0  0  0  0  0  0  0
    6.7630   -1.9842   -1.0316 H   0  0  0  0  0  0  0  0  0  0  0  0
    9.4047   -0.0448   -2.0448 H   0  0  0  0  0  0  0  0  0  0  0  0
  1  6  1  0  0  0  0
  1 45  1  0  0  0  0
  2  9  1  0  0  0  0
  2 48  1  0  0  0  0
  3 10  1  0  0  0  0
  3 49  1  0  0  0  0
  4 23  1  0  0  0  0
  4 57  1  0  0  0  0
  5 23  2  0  0  0  0
  6  7  1  0  0  0  0
  6  9  1  0  0  0  0
  6 24  1  0  0  0  0
  7  8  1  0  0  0  0
  7 25  1  0  0  0  0
  7 26  1  0  0  0  0
  8 10  1  0  0  0  0
  8 27  1  0  0  0  0
  8 28  1  0  0  0  0
  9 12  1  0  0  0  0
  9 29  1  0  0  0  0
 10 11  1  0  0  0  0
 10 30  1  0  0  0  0
 11 13  1  0  0  0  0
 11 31  1  0  0  0  0
 11 32  1  0  0  0  0
 12 14  1  0  0  0  0
 12 33  1  0  0  0  0
 12 34  1  0  0  0  0
 13 15  1  0  0  0  0
 13 35  1  0  0  0  0
 13 36  1  0  0  0  0
 14 16  1  0  0  0  0
 14 37  1  0  0  0  0
 14 38  1  0  0  0  0
 15 17  1  0  0  0  0
 15 39  1  0  0  0  0
 15 40  1  0  0  0  0
 16 18  1  0  0  0  0
 16 41  1  0  0  0  0
 16 42  1  0  0  0  0
 17 19  1  0  0  0  0
 17 43  1  0  0  0  0
 17 44  1  0  0  0  0
 18 20  1  0  0  0  0
 18 46  1  0  0  0  0
 18 47  1  0  0  0  0
 19 21  1  0  0  0  0
 19 50  1  0  0  0  0
 19 51  1  0  0  0  0
 20 52  1  0  0  0  0
 20 53  1  0  0  0  0
 20 54  1  0  0  0  0
 21 22  2  0  0  0  0
 21 55  1  0  0  0  0
 22 23  1  0  0  0  0
 22 56  1  0  0  0  0
M  END
> <PUBCHEM_COMPOUND_CID>
87252445

> <PUBCHEM_CONFORMER_RMSD>
1.6

> <PUBCHEM_CONFORMER_DIVERSEORDER>
2
82
59
10
52
77
11
48
7
71
17
86
25
5
38
34
44
57
85
65
87
18
66
75
9
51
16
14
88
54
3
36
20
89
56
72
80
67
68
40
43
73
12
81
27
32
42
70
8
21
79
23
60
69
41
62
33
19
39
84
55
31
35
6
46
28
15
63
24
58
49
45
30
29
64
37
1
53
13
74
61
22
26
47
83
78
50
4
76

> <PUBCHEM_MMFF94_PARTIAL_CHARGES>
18
1 -0.68
10 0.28
19 0.14
2 -0.68
21 -0.29
22 -0.14
23 0.71
3 -0.68
4 -0.65
45 0.4
48 0.4
49 0.4
5 -0.57
55 0.15
56 0.15
57 0.5
6 0.28
9 0.28

> <PUBCHEM_EFFECTIVE_ROTOR_COUNT>
15

> <PUBCHEM_PHARMACOPHORE_FEATURES>
13
1 1 acceptor
1 1 donor
1 2 acceptor
1 2 donor
1 20 hydrophobe
1 3 acceptor
1 3 donor
1 4 acceptor
1 5 acceptor
3 11 13 15 hydrophobe
3 17 19 21 hydrophobe
3 4 5 23 anion
4 12 14 16 18 hydrophobe

> <PUBCHEM_HEAVY_ATOM_COUNT>
23

> <PUBCHEM_ATOM_DEF_STEREO_COUNT>
0

> <PUBCHEM_ATOM_UDEF_STEREO_COUNT>
3

> <PUBCHEM_BOND_DEF_STEREO_COUNT>
1

> <PUBCHEM_BOND_UDEF_STEREO_COUNT>
0

> <PUBCHEM_ISOTOPIC_ATOM_COUNT>
0

> <PUBCHEM_COMPONENT_COUNT>
1

> <PUBCHEM_CACTVS_TAUTO_COUNT>
1

> <PUBCHEM_CONFORMER_ID>
05335DDD00000002

> <PUBCHEM_MMFF94_ENERGY>
23.4627

> <PUBCHEM_FEATURE_SELFOVERLAP>
66.034

> <PUBCHEM_SHAPE_FINGERPRINT>
10429389 143 13479143406400357510
10883706 17 18189054369189348507
11315181 36 18411420575484215601
11476731 50 18337945783592323894
12838862 33 16588018044121224536
13914758 101 9007053574457526548
14251764 18 18334014977988646402
14429380 56 16732989743523925134
1454969 45 18187367606339538674
14671636 106 18342736351158986991
15188451 53 18271799138923107361
15461852 350 18343586243920064531
1818759 1 18342177786974109199
21591340 7 10663810867517710857
21774942 28 10881394310107279986
23389318 12 17967533489033333750
306946 40 14273454821120429870
406291 66 18339918316728797407
4325135 7 17748833978244660918
445580 126 10952053350897256959
4760202 70 18334862770426749188
5385378 56 11959738161552894804
54039377 194 18338516443861822247
5718773 13 18410567414780188971
59755656 520 13254498835212359660
636783 126 17274556402386061550
636783 76 14634856579330491223

> <PUBCHEM_SHAPE_MULTIPOLES>
443.98
30.94
2.79
1.32
10.49
0.62
0.06
25.47
6.99
-5.8
0.48
0.88
0.04
-3.26

> <PUBCHEM_SHAPE_SELFOVERLAP>
832.655

> <PUBCHEM_SHAPE_VOLUME>
275.1

> <PUBCHEM_COORDINATE_TYPE>
2
5
10

$$$$
