5364510
  -OEChem-02172602463D

 30 29  0     0  0  0  0  0  0999 V2000
    1.9726   -0.9358   -0.9176 O   0  0  0  0  0  0  0  0  0  0  0  0
    1.6670   -1.2723    1.3451 O   0  0  0  0  0  0  0  0  0  0  0  0
   -2.9691    0.2808   -0.3036 C   0  0  0  0  0  0  0  0  0  0  0  0
   -2.2560    1.6167   -0.0693 C   0  0  0  0  0  0  0  0  0  0  0  0
   -2.3378   -0.8801    0.4692 C   0  0  0  0  0  0  0  0  0  0  0  0
   -0.8326    1.6073   -0.5455 C   0  0  0  0  0  0  0  0  0  0  0  0
    1.6429    1.8584   -0.2377 C   0  0  0  0  0  0  0  0  0  0  0  0
    0.2186    1.8881    0.2387 C   0  0  0  0  0  0  0  0  0  0  0  0
   -3.1158   -2.1709    0.2658 C   0  0  0  0  0  0  0  0  0  0  0  0
    2.4884    0.8495    0.5374 C   0  0  0  0  0  0  0  0  0  0  0  0
    1.9894   -0.5695    0.3956 C   0  0  0  0  0  0  0  0  0  0  0  0
    1.5324   -2.2723   -1.1779 C   0  0  0  0  0  0  0  0  0  0  0  0
   -2.9739    0.0477   -1.3761 H   0  0  0  0  0  0  0  0  0  0  0  0
   -4.0177    0.3905   -0.0005 H   0  0  0  0  0  0  0  0  0  0  0  0
   -2.3126    1.8776    0.9946 H   0  0  0  0  0  0  0  0  0  0  0  0
   -2.7934    2.4019   -0.6144 H   0  0  0  0  0  0  0  0  0  0  0  0
   -2.3101   -0.6424    1.5389 H   0  0  0  0  0  0  0  0  0  0  0  0
   -1.3043   -1.0382    0.1447 H   0  0  0  0  0  0  0  0  0  0  0  0
   -0.6674    1.3547   -1.5900 H   0  0  0  0  0  0  0  0  0  0  0  0
    2.0715    2.8585   -0.1026 H   0  0  0  0  0  0  0  0  0  0  0  0
    1.6892    1.6416   -1.3118 H   0  0  0  0  0  0  0  0  0  0  0  0
    0.0545    2.1490    1.2812 H   0  0  0  0  0  0  0  0  0  0  0  0
    2.4940    1.1025    1.6047 H   0  0  0  0  0  0  0  0  0  0  0  0
    3.5299    0.8799    0.1976 H   0  0  0  0  0  0  0  0  0  0  0  0
   -3.1370   -2.4531   -0.7917 H   0  0  0  0  0  0  0  0  0  0  0  0
   -2.6485   -2.9869    0.8258 H   0  0  0  0  0  0  0  0  0  0  0  0
   -4.1479   -2.0666    0.6152 H   0  0  0  0  0  0  0  0  0  0  0  0
    2.2109   -2.9911   -0.7089 H   0  0  0  0  0  0  0  0  0  0  0  0
    1.5474   -2.4300   -2.2596 H   0  0  0  0  0  0  0  0  0  0  0  0
    0.5096   -2.4148   -0.8177 H   0  0  0  0  0  0  0  0  0  0  0  0
  1 11  1  0  0  0  0
  1 12  1  0  0  0  0
  2 11  2  0  0  0  0
  3  4  1  0  0  0  0
  3  5  1  0  0  0  0
  3 13  1  0  0  0  0
  3 14  1  0  0  0  0
  4  6  1  0  0  0  0
  4 15  1  0  0  0  0
  4 16  1  0  0  0  0
  5  9  1  0  0  0  0
  5 17  1  0  0  0  0
  5 18  1  0  0  0  0
  6  8  2  0  0  0  0
  6 19  1  0  0  0  0
  7  8  1  0  0  0  0
  7 10  1  0  0  0  0
  7 20  1  0  0  0  0
  7 21  1  0  0  0  0
  8 22  1  0  0  0  0
  9 25  1  0  0  0  0
  9 26  1  0  0  0  0
  9 27  1  0  0  0  0
 10 11  1  0  0  0  0
 10 23  1  0  0  0  0
 10 24  1  0  0  0  0
 12 28  1  0  0  0  0
 12 29  1  0  0  0  0
 12 30  1  0  0  0  0
M  END
> <PUBCHEM_COMPOUND_CID>
5364510

> <PUBCHEM_CONFORMER_RMSD>
0.8

> <PUBCHEM_CONFORMER_DIVERSEORDER>
1
3
59
48
25
90
37
54
65
2
89
63
84
47
33
24
11
78
112
53
86
85
62
27
115
50
36
113
67
123
51
13
82
12
16
22
92
73
96
4
69
45
105
107
7
52
88
20
118
41
34
60
42
32
44
122
18
17
8
99
35
119
79
43
9
29
31
49
111
100
23
103
94
81
14
15
66
10
76
57
6
104
5
102
97
26
101
108
116
55
28
39
98
30
21
125
46
68
109
64
117
120
124
38
19
106
58
80
40
114
91
61
75
83
74
110
77
121
87
93
56
70
95
71
72

> <PUBCHEM_MMFF94_PARTIAL_CHARGES>
11
1 -0.43
10 0.06
11 0.66
12 0.28
19 0.15
2 -0.57
22 0.15
4 0.14
6 -0.29
7 0.14
8 -0.29

> <PUBCHEM_EFFECTIVE_ROTOR_COUNT>
7

> <PUBCHEM_PHARMACOPHORE_FEATURES>
3
1 2 acceptor
1 9 hydrophobe
4 3 4 5 6 hydrophobe

> <PUBCHEM_HEAVY_ATOM_COUNT>
12

> <PUBCHEM_ATOM_DEF_STEREO_COUNT>
0

> <PUBCHEM_ATOM_UDEF_STEREO_COUNT>
0

> <PUBCHEM_BOND_DEF_STEREO_COUNT>
1

> <PUBCHEM_BOND_UDEF_STEREO_COUNT>
0

> <PUBCHEM_ISOTOPIC_ATOM_COUNT>
0

> <PUBCHEM_COMPONENT_COUNT>
1

> <PUBCHEM_CACTVS_TAUTO_COUNT>
1

> <PUBCHEM_CONFORMER_ID>
0051DB1E00000001

> <PUBCHEM_MMFF94_ENERGY>
3.4287

> <PUBCHEM_FEATURE_SELFOVERLAP>
15.224

> <PUBCHEM_SHAPE_FINGERPRINT>
11987891 36 18337106899011657013
12382932 28 18412537713035074217
1420 336 18192712237524756891
14251705 54 18339367490802953103
14251711 518 18194109944268374919
14251717 144 18051691350300830407
15757776 16 18118114999053977257
17990270 104 18341049627275769244
19766037 51 18127713555117897926
20201158 50 18411694353309273597
20442098 301 18271809059759432455
20645477 70 18194116554850518359
20724930 14 18269560605403738335
232386 152 17897717670144516626
23552423 10 18114184172213353277
568465 68 17845917589984505242
66348 1 17906733596609109975
8199 65 17976258259543826459

> <PUBCHEM_SHAPE_MULTIPOLES>
235.22
4.95
2.85
1
2.74
0.54
0
1.53
0.4
0.11
-0.45
-0.44
0.43
0.61

> <PUBCHEM_SHAPE_SELFOVERLAP>
432.548

> <PUBCHEM_SHAPE_VOLUME>
149.3

> <PUBCHEM_COORDINATE_TYPE>
2
5
10

$$$$
