8927
  -OEChem-02172602563D

 55 54  0     0  0  0  0  0  0999 V2000
   -4.0773    4.0975    1.1856 O   0  0  0  0  0  0  0  0  0  0  0  0
    1.6660    2.1778   -0.6402 C   0  0  0  0  0  0  0  0  0  0  0  0
    2.2616    1.2859   -1.7332 C   0  0  0  0  0  0  0  0  0  0  0  0
   -0.8520   -2.6541    0.7648 C   0  0  0  0  0  0  0  0  0  0  0  0
    0.6192   -2.3644    0.4599 C   0  0  0  0  0  0  0  0  0  0  0  0
    0.1401    2.2973   -0.7208 C   0  0  0  0  0  0  0  0  0  0  0  0
    3.7941    1.2401   -1.6989 C   0  0  0  0  0  0  0  0  0  0  0  0
   -1.7859   -2.3409   -0.4104 C   0  0  0  0  0  0  0  0  0  0  0  0
    1.5672   -2.7278    1.6083 C   0  0  0  0  0  0  0  0  0  0  0  0
   -0.5094    3.2202    0.3147 C   0  0  0  0  0  0  0  0  0  0  0  0
   -3.2492   -2.6981   -0.1342 C   0  0  0  0  0  0  0  0  0  0  0  0
    4.4008    0.7180   -0.3926 C   0  0  0  0  0  0  0  0  0  0  0  0
    3.0598   -2.5306    1.3255 C   0  0  0  0  0  0  0  0  0  0  0  0
   -2.0386    3.2254    0.2402 C   0  0  0  0  0  0  0  0  0  0  0  0
   -4.1695   -2.4486   -1.3318 C   0  0  0  0  0  0  0  0  0  0  0  0
    4.0178   -0.7032   -0.0962 C   0  0  0  0  0  0  0  0  0  0  0  0
    3.4369   -1.1037    1.0445 C   0  0  0  0  0  0  0  0  0  0  0  0
   -2.6616    4.1374    1.2905 C   0  0  0  0  0  0  0  0  0  0  0  0
   -5.6198   -2.8282   -1.0756 C   0  0  0  0  0  0  0  0  0  0  0  0
    1.9233    1.7847    0.3493 H   0  0  0  0  0  0  0  0  0  0  0  0
    2.1057    3.1801   -0.7110 H   0  0  0  0  0  0  0  0  0  0  0  0
    1.9507    1.6646   -2.7147 H   0  0  0  0  0  0  0  0  0  0  0  0
    1.8518    0.2728   -1.6474 H   0  0  0  0  0  0  0  0  0  0  0  0
   -1.1634   -2.0703    1.6395 H   0  0  0  0  0  0  0  0  0  0  0  0
   -0.9596   -3.7120    1.0345 H   0  0  0  0  0  0  0  0  0  0  0  0
    0.9171   -2.9236   -0.4356 H   0  0  0  0  0  0  0  0  0  0  0  0
    0.7252   -1.3002    0.2181 H   0  0  0  0  0  0  0  0  0  0  0  0
   -0.1349    2.6505   -1.7228 H   0  0  0  0  0  0  0  0  0  0  0  0
   -0.2912    1.2931   -0.6183 H   0  0  0  0  0  0  0  0  0  0  0  0
   -1.7129   -1.2742   -0.6558 H   0  0  0  0  0  0  0  0  0  0  0  0
   -1.4444   -2.8935   -1.2944 H   0  0  0  0  0  0  0  0  0  0  0  0
    4.1835    2.2492   -1.8834 H   0  0  0  0  0  0  0  0  0  0  0  0
    4.1415    0.6190   -2.5345 H   0  0  0  0  0  0  0  0  0  0  0  0
    1.4099   -3.7812    1.8734 H   0  0  0  0  0  0  0  0  0  0  0  0
    1.2888   -2.1435    2.4950 H   0  0  0  0  0  0  0  0  0  0  0  0
   -0.1994    2.9031    1.3180 H   0  0  0  0  0  0  0  0  0  0  0  0
   -0.1322    4.2402    0.1729 H   0  0  0  0  0  0  0  0  0  0  0  0
   -3.6065   -2.1170    0.7248 H   0  0  0  0  0  0  0  0  0  0  0  0
   -3.3132   -3.7557    0.1503 H   0  0  0  0  0  0  0  0  0  0  0  0
    5.4935    0.7555   -0.4844 H   0  0  0  0  0  0  0  0  0  0  0  0
    4.1459    1.3820    0.4407 H   0  0  0  0  0  0  0  0  0  0  0  0
    3.3546   -3.1818    0.4935 H   0  0  0  0  0  0  0  0  0  0  0  0
    3.6300   -2.8661    2.2002 H   0  0  0  0  0  0  0  0  0  0  0  0
   -2.4253    2.2069    0.3708 H   0  0  0  0  0  0  0  0  0  0  0  0
   -2.3659    3.5435   -0.7573 H   0  0  0  0  0  0  0  0  0  0  0  0
   -3.8041   -3.0178   -2.1949 H   0  0  0  0  0  0  0  0  0  0  0  0
   -4.1239   -1.3885   -1.6085 H   0  0  0  0  0  0  0  0  0  0  0  0
    4.2428   -1.4383   -0.8652 H   0  0  0  0  0  0  0  0  0  0  0  0
    3.2202   -0.3747    1.8211 H   0  0  0  0  0  0  0  0  0  0  0  0
   -2.3806    3.8143    2.2981 H   0  0  0  0  0  0  0  0  0  0  0  0
   -2.3327    5.1718    1.1474 H   0  0  0  0  0  0  0  0  0  0  0  0
   -6.0319   -2.2518   -0.2414 H   0  0  0  0  0  0  0  0  0  0  0  0
   -5.7077   -3.8923   -0.8345 H   0  0  0  0  0  0  0  0  0  0  0  0
   -6.2282   -2.6278   -1.9629 H   0  0  0  0  0  0  0  0  0  0  0  0
   -4.4312    4.6903    1.8704 H   0  0  0  0  0  0  0  0  0  0  0  0
  1 18  1  0  0  0  0
  1 55  1  0  0  0  0
  2  3  1  0  0  0  0
  2  6  1  0  0  0  0
  2 20  1  0  0  0  0
  2 21  1  0  0  0  0
  3  7  1  0  0  0  0
  3 22  1  0  0  0  0
  3 23  1  0  0  0  0
  4  5  1  0  0  0  0
  4  8  1  0  0  0  0
  4 24  1  0  0  0  0
  4 25  1  0  0  0  0
  5  9  1  0  0  0  0
  5 26  1  0  0  0  0
  5 27  1  0  0  0  0
  6 10  1  0  0  0  0
  6 28  1  0  0  0  0
  6 29  1  0  0  0  0
  7 12  1  0  0  0  0
  7 32  1  0  0  0  0
  7 33  1  0  0  0  0
  8 11  1  0  0  0  0
  8 30  1  0  0  0  0
  8 31  1  0  0  0  0
  9 13  1  0  0  0  0
  9 34  1  0  0  0  0
  9 35  1  0  0  0  0
 10 14  1  0  0  0  0
 10 36  1  0  0  0  0
 10 37  1  0  0  0  0
 11 15  1  0  0  0  0
 11 38  1  0  0  0  0
 11 39  1  0  0  0  0
 12 16  1  0  0  0  0
 12 40  1  0  0  0  0
 12 41  1  0  0  0  0
 13 17  1  0  0  0  0
 13 42  1  0  0  0  0
 13 43  1  0  0  0  0
 14 18  1  0  0  0  0
 14 44  1  0  0  0  0
 14 45  1  0  0  0  0
 15 19  1  0  0  0  0
 15 46  1  0  0  0  0
 15 47  1  0  0  0  0
 16 17  2  3  0  0  0
 16 48  1  0  0  0  0
 17 49  1  0  0  0  0
 18 50  1  0  0  0  0
 18 51  1  0  0  0  0
 19 52  1  0  0  0  0
 19 53  1  0  0  0  0
 19 54  1  0  0  0  0
M  END
> <PUBCHEM_COMPOUND_CID>
8927

> <PUBCHEM_CONFORMER_RMSD>
1.4

> <PUBCHEM_CONFORMER_DIVERSEORDER>
1
20
38
45
8
54
90
14
91
39
101
12
53
50
104
74
9
103
10
32
60
65
19
18
87
76
44
69
106
58
28
70
82
51
27
71
102
5
92
21
30
61
107
56
2
29
83
84
72
78
48
66
75
34
89
17
16
79
85
68
55
13
110
36
40
96
98
25
52
93
22
41
113
37
49
95
62
77
105
108
94
31
67
57
4
80
7
47
86
35
3
88
15
26
59
112
24
64
43
33
23
11
6
99
97
63
109
73
100
111
46
42
81

> <PUBCHEM_MMFF94_PARTIAL_CHARGES>
9
1 -0.68
12 0.14
13 0.14
16 -0.29
17 -0.29
18 0.28
48 0.15
49 0.15
55 0.4

> <PUBCHEM_EFFECTIVE_ROTOR_COUNT>
15

> <PUBCHEM_PHARMACOPHORE_FEATURES>
3
1 1 acceptor
1 1 donor
1 19 hydrophobe

> <PUBCHEM_HEAVY_ATOM_COUNT>
19

> <PUBCHEM_ATOM_DEF_STEREO_COUNT>
0

> <PUBCHEM_ATOM_UDEF_STEREO_COUNT>
0

> <PUBCHEM_BOND_DEF_STEREO_COUNT>
0

> <PUBCHEM_BOND_UDEF_STEREO_COUNT>
1

> <PUBCHEM_ISOTOPIC_ATOM_COUNT>
0

> <PUBCHEM_COMPONENT_COUNT>
1

> <PUBCHEM_CACTVS_TAUTO_COUNT>
1

> <PUBCHEM_CONFORMER_ID>
000022DF00000001

> <PUBCHEM_MMFF94_ENERGY>
-1.9436

> <PUBCHEM_FEATURE_SELFOVERLAP>
15.223

> <PUBCHEM_SHAPE_FINGERPRINT>
10064457 181 17836913513524429288
11646440 116 18120095241313589826
12769317 202 17751619160550541110
12788726 201 18267036122516970676
14464042 87 18409163350435530846
14681490 219 18267581501964652423
14931854 50 18189053260385601614
15322687 12 17826223274894163510
19734167 9 17763985157769743266
20621476 13 17545037564225059644
21315764 21 17606960878333518501
21344244 78 18045748343697512810
3014063 31 18263354957370807678
6287921 2 17261311397860498049

> <PUBCHEM_SHAPE_MULTIPOLES>
385.14
9.64
6.92
1.63
6.94
7.39
0.13
-5.32
3.53
7.68
-3.36
-0.34
0.1
-4.9

> <PUBCHEM_SHAPE_SELFOVERLAP>
694.894

> <PUBCHEM_SHAPE_VOLUME>
246.9

> <PUBCHEM_COORDINATE_TYPE>
2
5
10

$$$$
