91666318
  -OEChem-03052615023D

 23 23  0     1  0  0  0  0  0999 V2000
   -0.2950   -1.2174    0.4235 O   0  0  0  0  0  0  0  0  0  0  0  0
    1.6128    1.1313   -1.4357 O   0  0  0  0  0  0  0  0  0  0  0  0
   -0.7219    1.5160    1.3400 O   0  0  0  0  0  0  0  0  0  0  0  0
    3.1845   -0.0260    0.5661 O   0  0  0  0  0  0  0  0  0  0  0  0
    1.5333   -1.6729   -1.0158 O   0  0  0  0  0  0  0  0  0  0  0  0
   -2.9973    0.6288   -0.9244 O   0  0  0  0  0  0  0  0  0  0  0  0
   -2.8896   -1.0422    0.6222 O   0  0  0  0  0  0  0  0  0  0  0  0
    1.2051    1.2132   -0.0720 C   0  0  1  0  0  0  0  0  0  0  0  0
   -0.3253    1.2008    0.0053 C   0  0  1  0  0  0  0  0  0  0  0  0
    1.7715    0.0245    0.7145 C   0  0  1  0  0  0  0  0  0  0  0  0
   -0.8656   -0.1825   -0.3741 C   0  0  2  0  0  0  0  0  0  0  0  0
    1.1288   -1.3042    0.3000 C   0  0  1  0  0  0  0  0  0  0  0  0
   -2.3415   -0.2695   -0.1496 C   0  0  0  0  0  0  0  0  0  0  0  0
    1.6160    2.1439    0.3361 H   0  0  0  0  0  0  0  0  0  0  0  0
   -0.7496    1.9621   -0.6595 H   0  0  0  0  0  0  0  0  0  0  0  0
    1.5582    0.1845    1.7792 H   0  0  0  0  0  0  0  0  0  0  0  0
   -0.6780   -0.4121   -1.4302 H   0  0  0  0  0  0  0  0  0  0  0  0
    1.4794   -2.0926    0.9755 H   0  0  0  0  0  0  0  0  0  0  0  0
    1.2413    1.9014   -1.8989 H   0  0  0  0  0  0  0  0  0  0  0  0
   -0.3775    2.4018    1.5458 H   0  0  0  0  0  0  0  0  0  0  0  0
    3.5419    0.8300    0.8577 H   0  0  0  0  0  0  0  0  0  0  0  0
    1.4711   -2.6413   -1.0739 H   0  0  0  0  0  0  0  0  0  0  0  0
   -3.9684    0.5872   -0.7919 H   0  0  0  0  0  0  0  0  0  0  0  0
  1 11  1  0  0  0  0
  1 12  1  0  0  0  0
  2  8  1  0  0  0  0
  2 19  1  0  0  0  0
  3  9  1  0  0  0  0
  3 20  1  0  0  0  0
  4 10  1  0  0  0  0
  4 21  1  0  0  0  0
  5 12  1  0  0  0  0
  5 22  1  0  0  0  0
  6 13  1  0  0  0  0
  6 23  1  0  0  0  0
  7 13  2  0  0  0  0
  8  9  1  0  0  0  0
  8 10  1  0  0  0  0
  8 14  1  0  0  0  0
  9 11  1  0  0  0  0
  9 15  1  0  0  0  0
 10 12  1  0  0  0  0
 10 16  1  0  0  0  0
 11 13  1  0  0  0  0
 11 17  1  0  0  0  0
 12 18  1  0  0  0  0
M  END
> <PUBCHEM_COMPOUND_CID>
91666318

> <PUBCHEM_CONFORMER_RMSD>
0.6

> <PUBCHEM_CONFORMER_DIVERSEORDER>
1
8
2
5
4
7
9
3
6

> <PUBCHEM_MMFF94_PARTIAL_CHARGES>
18
1 -0.56
10 0.28
11 0.34
12 0.56
13 0.66
19 0.4
2 -0.68
20 0.4
21 0.4
22 0.4
23 0.5
3 -0.68
4 -0.68
5 -0.68
6 -0.65
7 -0.57
8 0.28
9 0.28

> <PUBCHEM_EFFECTIVE_ROTOR_COUNT>
2.2

> <PUBCHEM_PHARMACOPHORE_FEATURES>
13
1 1 acceptor
1 2 acceptor
1 2 donor
1 3 acceptor
1 3 donor
1 4 acceptor
1 4 donor
1 5 acceptor
1 5 donor
1 6 acceptor
1 7 acceptor
3 6 7 13 anion
6 1 8 9 10 11 12 rings

> <PUBCHEM_HEAVY_ATOM_COUNT>
13

> <PUBCHEM_ATOM_DEF_STEREO_COUNT>
4

> <PUBCHEM_ATOM_UDEF_STEREO_COUNT>
1

> <PUBCHEM_BOND_DEF_STEREO_COUNT>
0

> <PUBCHEM_BOND_UDEF_STEREO_COUNT>
0

> <PUBCHEM_ISOTOPIC_ATOM_COUNT>
0

> <PUBCHEM_COMPONENT_COUNT>
1

> <PUBCHEM_CACTVS_TAUTO_COUNT>
1

> <PUBCHEM_CONFORMER_ID>
0576B78E00000001

> <PUBCHEM_MMFF94_ENERGY>
26.9657

> <PUBCHEM_FEATURE_SELFOVERLAP>
66.101

> <PUBCHEM_SHAPE_FINGERPRINT>
10219947 1 18342448262175103722
12423570 1 18261099811814339950
14128692 85 18334291006587973446
16945 1 18202003247965027840
20201158 50 18336255778317317795
20511035 2 18119240920709982466
21040471 1 18119245314166159488
23235685 24 18410846690079282488
23402655 69 18194939900218500509
23552423 10 18334582295739191175
241688 4 17977107859940990890
2748010 2 18196369212940133990
29004967 10 18341890801042174283
4369600 1 17986123017612252360
5084963 1 18186799218350755344
528886 8 18041826355523730965

> <PUBCHEM_SHAPE_MULTIPOLES>
226.45
3.82
1.6
1.06
1.31
0.08
-0.09
0.39
-0.06
-0.26
-0.03
-0.14
-0.19
0.1

> <PUBCHEM_SHAPE_SELFOVERLAP>
463.06

> <PUBCHEM_SHAPE_VOLUME>
128

> <PUBCHEM_COORDINATE_TYPE>
2
5
10

$$$$
