92982622
  -OEChem-03052615053D

 45 47  0     1  0  0  0  0  0999 V2000
   -0.5190    2.6541   -0.8651 O   0  0  0  0  0  0  0  0  0  0  0  0
    2.2696   -0.5103    0.2720 O   0  0  0  0  0  0  0  0  0  0  0  0
   -3.4217   -1.9343    0.2971 O   0  0  0  0  0  0  0  0  0  0  0  0
    1.1652    4.1346   -0.3876 O   0  0  0  0  0  0  0  0  0  0  0  0
   -1.9511   -2.3914    2.0052 O   0  0  0  0  0  0  0  0  0  0  0  0
    2.9867   -1.3587   -1.7441 O   0  0  0  0  0  0  0  0  0  0  0  0
    0.1823    0.7573    0.4476 C   0  0  2  0  0  0  0  0  0  0  0  0
    0.9324   -0.4265   -0.2332 C   0  0  2  0  0  0  0  0  0  0  0  0
   -0.9440    1.3388   -0.4400 C   0  0  1  0  0  0  0  0  0  0  0  0
    0.2912   -1.8134    0.0327 C   0  0  0  0  0  0  0  0  0  0  0  0
    1.0113    1.9800    0.6782 C   0  0  0  0  0  0  0  0  0  0  0  0
   -1.1694   -1.8866   -0.2037 C   0  0  0  0  0  0  0  0  0  0  0  0
   -2.2565    1.4822    0.2862 C   0  0  0  0  0  0  0  0  0  0  0  0
   -3.2799   -1.4781   -1.0528 C   0  0  1  0  0  0  0  0  0  0  0  0
   -3.7312   -0.0086   -1.1880 C   0  0  0  0  0  0  0  0  0  0  0  0
   -3.4412    0.9052   -0.0042 C   0  0  0  0  0  0  0  0  0  0  0  0
   -1.8385   -1.6411   -1.3260 C   0  0  0  0  0  0  0  0  0  0  0  0
    0.6089    3.0628   -0.2298 C   0  0  0  0  0  0  0  0  0  0  0  0
   -2.1791   -2.1052    0.8427 C   0  0  0  0  0  0  0  0  0  0  0  0
    1.9340    2.1851    1.6230 C   0  0  0  0  0  0  0  0  0  0  0  0
   -4.6308    1.1668    0.8865 C   0  0  0  0  0  0  0  0  0  0  0  0
    3.1989   -0.9967   -0.5954 C   0  0  0  0  0  0  0  0  0  0  0  0
    4.5329   -1.0252    0.0665 C   0  0  0  0  0  0  0  0  0  0  0  0
    4.6380   -1.2223    1.5476 C   0  0  0  0  0  0  0  0  0  0  0  0
    5.6112   -0.8686   -0.7154 C   0  0  0  0  0  0  0  0  0  0  0  0
   -0.2089    0.4089    1.4131 H   0  0  0  0  0  0  0  0  0  0  0  0
    0.9557   -0.2337   -1.3145 H   0  0  0  0  0  0  0  0  0  0  0  0
   -1.0682    0.7814   -1.3678 H   0  0  0  0  0  0  0  0  0  0  0  0
    0.5110   -2.1043    1.0687 H   0  0  0  0  0  0  0  0  0  0  0  0
    0.7938   -2.5748   -0.5773 H   0  0  0  0  0  0  0  0  0  0  0  0
   -2.2102    2.1258    1.1648 H   0  0  0  0  0  0  0  0  0  0  0  0
   -3.8676   -2.1279   -1.7098 H   0  0  0  0  0  0  0  0  0  0  0  0
   -4.8194   -0.0158   -1.3414 H   0  0  0  0  0  0  0  0  0  0  0  0
   -3.3267    0.4337   -2.1080 H   0  0  0  0  0  0  0  0  0  0  0  0
   -1.3772   -1.4151   -2.2774 H   0  0  0  0  0  0  0  0  0  0  0  0
    2.1910    1.3999    2.3261 H   0  0  0  0  0  0  0  0  0  0  0  0
    2.4503    3.1334    1.7267 H   0  0  0  0  0  0  0  0  0  0  0  0
   -5.4240    1.6673    0.3214 H   0  0  0  0  0  0  0  0  0  0  0  0
   -4.3824    1.8033    1.7423 H   0  0  0  0  0  0  0  0  0  0  0  0
   -5.0252    0.2247    1.2810 H   0  0  0  0  0  0  0  0  0  0  0  0
    4.2355   -0.3559    2.0818 H   0  0  0  0  0  0  0  0  0  0  0  0
    4.0773   -2.1117    1.8533 H   0  0  0  0  0  0  0  0  0  0  0  0
    5.6756   -1.3598    1.8700 H   0  0  0  0  0  0  0  0  0  0  0  0
    6.6120   -0.8790   -0.2956 H   0  0  0  0  0  0  0  0  0  0  0  0
    5.5318   -0.7212   -1.7876 H   0  0  0  0  0  0  0  0  0  0  0  0
  1  9  1  0  0  0  0
  1 18  1  0  0  0  0
  2  8  1  0  0  0  0
  2 22  1  0  0  0  0
  3 14  1  0  0  0  0
  3 19  1  0  0  0  0
  4 18  2  0  0  0  0
  5 19  2  0  0  0  0
  6 22  2  0  0  0  0
  7  8  1  0  0  0  0
  7  9  1  0  0  0  0
  7 11  1  0  0  0  0
  7 26  1  0  0  0  0
  8 10  1  0  0  0  0
  8 27  1  0  0  0  0
  9 13  1  0  0  0  0
  9 28  1  0  0  0  0
 10 12  1  0  0  0  0
 10 29  1  0  0  0  0
 10 30  1  0  0  0  0
 11 18  1  0  0  0  0
 11 20  2  0  0  0  0
 12 17  2  0  0  0  0
 12 19  1  0  0  0  0
 13 16  2  0  0  0  0
 13 31  1  0  0  0  0
 14 15  1  0  0  0  0
 14 17  1  0  0  0  0
 14 32  1  0  0  0  0
 15 16  1  0  0  0  0
 15 33  1  0  0  0  0
 15 34  1  0  0  0  0
 16 21  1  0  0  0  0
 17 35  1  0  0  0  0
 20 36  1  0  0  0  0
 20 37  1  0  0  0  0
 21 38  1  0  0  0  0
 21 39  1  0  0  0  0
 21 40  1  0  0  0  0
 22 23  1  0  0  0  0
 23 24  1  0  0  0  0
 23 25  2  0  0  0  0
 24 41  1  0  0  0  0
 24 42  1  0  0  0  0
 24 43  1  0  0  0  0
 25 44  1  0  0  0  0
 25 45  1  0  0  0  0
M  END
> <PUBCHEM_COMPOUND_CID>
92982622

> <PUBCHEM_CONFORMER_RMSD>
0.8

> <PUBCHEM_CONFORMER_DIVERSEORDER>
1
5
3
8
6
4
7
2

> <PUBCHEM_MMFF94_PARTIAL_CHARGES>
31
1 -0.43
10 0.14
11 -0.12
12 -0.12
13 -0.29
14 0.42
15 0.14
16 -0.28
17 -0.29
18 0.71
19 0.71
2 -0.43
20 -0.3
21 0.14
22 0.71
23 -0.12
24 0.14
25 -0.3
3 -0.43
31 0.15
35 0.15
36 0.15
37 0.15
4 -0.57
44 0.15
45 0.15
5 -0.57
6 -0.57
7 0.14
8 0.28
9 0.42

> <PUBCHEM_EFFECTIVE_ROTOR_COUNT>
4

> <PUBCHEM_PHARMACOPHORE_FEATURES>
5
1 4 acceptor
1 5 acceptor
1 6 acceptor
5 1 7 9 11 18 rings
5 3 12 14 17 19 rings

> <PUBCHEM_HEAVY_ATOM_COUNT>
25

> <PUBCHEM_ATOM_DEF_STEREO_COUNT>
4

> <PUBCHEM_ATOM_UDEF_STEREO_COUNT>
0

> <PUBCHEM_BOND_DEF_STEREO_COUNT>
1

> <PUBCHEM_BOND_UDEF_STEREO_COUNT>
0

> <PUBCHEM_ISOTOPIC_ATOM_COUNT>
0

> <PUBCHEM_COMPONENT_COUNT>
1

> <PUBCHEM_CACTVS_TAUTO_COUNT>
1

> <PUBCHEM_CONFORMER_ID>
058ACD5E00000001

> <PUBCHEM_MMFF94_ENERGY>
57.5332

> <PUBCHEM_FEATURE_SELFOVERLAP>
25.373

> <PUBCHEM_SHAPE_FINGERPRINT>
10006869 2 17762335817434986169
10675989 125 16532560528537287037
1100329 8 18410017628384649753
11135609 12 18117561940653105161
11680986 33 18339918345859424209
12011746 2 18340200783351791109
12035758 1 18412268311279706017
12107698 1 18341327890339960295
12553582 1 18336820892649257376
12788726 201 18191585255512781640
13140716 1 18412262865408984249
14022347 108 18266475212746731182
14223421 5 17902230345132449419
14790565 3 18124043333770977288
14955137 171 18197239000121556377
15209289 33 18412262796794846449
17357779 13 18201145611905514694
17492 54 18265601092792334821
20600515 1 18342463638258185452
20691752 17 18041546014660940617
21033648 29 17561071514707792938
21285901 2 17986395486121282108
23175994 123 18336269023764714079
2334 1 18267298927444762589
23366157 5 18042967773253325060
23402539 116 18342451500765249950
23419403 2 17416377992526946560
23557571 272 18129386991073772412
23558518 356 18339640169965950217
23559900 14 18269544086943868985
2748010 2 18338510971191843421
2818148 4 17681586892937221579
3178227 256 18263943063987087521
335352 9 18412261714700685917
350125 39 18339931510598538697
404807 14 15836515916396023447
57527585 103 17679574816860871715
70251023 43 18196924694436882607
7226269 152 18262512585851728802
81228 2 18197512735477515786
9709674 26 18193547003236931231
9981440 41 17476060797679363489

> <PUBCHEM_SHAPE_MULTIPOLES>
479.27
8.57
3.64
1.39
6.79
2.99
0.26
-3.74
0.05
-0.36
0.1
0.15
-0.42
0.32

> <PUBCHEM_SHAPE_SELFOVERLAP>
1023.59

> <PUBCHEM_SHAPE_VOLUME>
265.3

> <PUBCHEM_COORDINATE_TYPE>
2
5
10

$$$$
