9825442
  -OEChem-03052615033D

 59 63  0     0  0  0  0  0  0999 V2000
    0.0717    2.8207    1.2126 O   0  0  0  0  0  0  0  0  0  0  0  0
   -0.3064    5.0485    0.3753 O   0  0  0  0  0  0  0  0  0  0  0  0
   -0.9376   -1.3168   -1.7941 O   0  0  0  0  0  0  0  0  0  0  0  0
    0.5192   -2.9928    1.5042 O   0  0  0  0  0  0  0  0  0  0  0  0
   -1.4233   -3.1670   -0.4396 N   0  0  0  0  0  0  0  0  0  0  0  0
   -3.3137   -0.1289   -1.3549 N   0  0  0  0  0  0  0  0  0  0  0  0
    2.1510   -3.4211   -0.0945 N   0  0  0  0  0  0  0  0  0  0  0  0
    4.5762    2.3977   -0.2346 N   0  0  0  0  0  0  0  0  0  0  0  0
   -3.9012   -1.9329    0.0223 N   0  0  0  0  0  0  0  0  0  0  0  0
   -4.5373    1.3671    0.1297 C   0  0  0  0  0  0  0  0  0  0  0  0
   -4.5530    0.5572   -1.1660 C   0  0  0  0  0  0  0  0  0  0  0  0
   -3.4217    2.3826    0.1797 C   0  0  0  0  0  0  0  0  0  0  0  0
   -0.1437   -3.8317   -0.6623 C   0  0  0  0  0  0  0  0  0  0  0  0
    3.5975   -1.5404    0.4868 C   0  0  0  0  0  0  0  0  0  0  0  0
   -3.0462   -1.3345   -0.7560 C   0  0  0  0  0  0  0  0  0  0  0  0
    3.2962   -2.9986    0.6795 C   0  0  0  0  0  0  0  0  0  0  0  0
   -2.3741   -3.7567    0.3804 C   0  0  0  0  0  0  0  0  0  0  0  0
   -1.6849   -1.9423   -1.0517 C   0  0  0  0  0  0  0  0  0  0  0  0
    4.7473    0.2246   -0.7095 C   0  0  0  0  0  0  0  0  0  0  0  0
   -2.1803    2.0234    0.7101 C   0  0  0  0  0  0  0  0  0  0  0  0
    4.1423    1.1479    0.1461 C   0  0  0  0  0  0  0  0  0  0  0  0
   -1.1918    2.9858    0.7347 C   0  0  0  0  0  0  0  0  0  0  0  0
   -3.6423    3.6824   -0.3086 C   0  0  0  0  0  0  0  0  0  0  0  0
    4.4687   -1.1456   -0.5349 C   0  0  0  0  0  0  0  0  0  0  0  0
   -1.4077    4.2580    0.2567 C   0  0  0  0  0  0  0  0  0  0  0  0
    0.8504   -3.3820    0.3871 C   0  0  0  0  0  0  0  0  0  0  0  0
    3.0085   -0.5967    1.3261 C   0  0  0  0  0  0  0  0  0  0  0  0
   -2.6240    4.6381   -0.2721 C   0  0  0  0  0  0  0  0  0  0  0  0
    3.2694    0.7678    1.1717 C   0  0  0  0  0  0  0  0  0  0  0  0
   -3.5438   -3.1298    0.5717 C   0  0  0  0  0  0  0  0  0  0  0  0
    5.5585    0.9639   -1.6151 C   0  0  0  0  0  0  0  0  0  0  0  0
   -2.0836   -5.0761    1.0362 C   0  0  0  0  0  0  0  0  0  0  0  0
    5.4324    2.2967   -1.2981 C   0  0  0  0  0  0  0  0  0  0  0  0
    0.6272    4.1314    0.9810 C   0  0  0  0  0  0  0  0  0  0  0  0
   -5.5005    1.8800    0.2465 H   0  0  0  0  0  0  0  0  0  0  0  0
   -4.4544    0.7005    0.9977 H   0  0  0  0  0  0  0  0  0  0  0  0
   -4.7089    1.2333   -2.0154 H   0  0  0  0  0  0  0  0  0  0  0  0
   -5.4017   -0.1367   -1.1695 H   0  0  0  0  0  0  0  0  0  0  0  0
   -0.2284   -4.9213   -0.6600 H   0  0  0  0  0  0  0  0  0  0  0  0
    0.2220   -3.5420   -1.6549 H   0  0  0  0  0  0  0  0  0  0  0  0
   -2.6141    0.3130   -1.9449 H   0  0  0  0  0  0  0  0  0  0  0  0
    4.1488   -3.6130    0.3686 H   0  0  0  0  0  0  0  0  0  0  0  0
    3.1187   -3.2153    1.7396 H   0  0  0  0  0  0  0  0  0  0  0  0
   -1.9928    1.0272    1.0961 H   0  0  0  0  0  0  0  0  0  0  0  0
   -4.6098    3.9560   -0.7223 H   0  0  0  0  0  0  0  0  0  0  0  0
    4.9267   -1.8819   -1.1900 H   0  0  0  0  0  0  0  0  0  0  0  0
    2.3218   -3.7477   -1.0412 H   0  0  0  0  0  0  0  0  0  0  0  0
    2.3348   -0.9101    2.1201 H   0  0  0  0  0  0  0  0  0  0  0  0
   -2.7900    5.6413   -0.6479 H   0  0  0  0  0  0  0  0  0  0  0  0
    2.8111    1.5017    1.8261 H   0  0  0  0  0  0  0  0  0  0  0  0
   -4.3025   -3.5732    1.2092 H   0  0  0  0  0  0  0  0  0  0  0  0
    6.1691    0.5647   -2.4135 H   0  0  0  0  0  0  0  0  0  0  0  0
    4.3011    3.2640    0.2073 H   0  0  0  0  0  0  0  0  0  0  0  0
   -1.1778   -5.0352    1.6474 H   0  0  0  0  0  0  0  0  0  0  0  0
   -2.8974   -5.3791    1.7053 H   0  0  0  0  0  0  0  0  0  0  0  0
   -1.9804   -5.8697    0.2891 H   0  0  0  0  0  0  0  0  0  0  0  0
    5.8750    3.1811   -1.7343 H   0  0  0  0  0  0  0  0  0  0  0  0
    0.9564    4.5473    1.9401 H   0  0  0  0  0  0  0  0  0  0  0  0
    1.4985    4.0316    0.3233 H   0  0  0  0  0  0  0  0  0  0  0  0
  1 22  1  0  0  0  0
  1 34  1  0  0  0  0
  2 25  1  0  0  0  0
  2 34  1  0  0  0  0
  3 18  2  0  0  0  0
  4 26  2  0  0  0  0
  5 13  1  0  0  0  0
  5 17  1  0  0  0  0
  5 18  1  0  0  0  0
  6 11  1  0  0  0  0
  6 15  1  0  0  0  0
  6 41  1  0  0  0  0
  7 16  1  0  0  0  0
  7 26  1  0  0  0  0
  7 47  1  0  0  0  0
  8 21  1  0  0  0  0
  8 33  1  0  0  0  0
  8 53  1  0  0  0  0
  9 15  2  0  0  0  0
  9 30  1  0  0  0  0
 10 11  1  0  0  0  0
 10 12  1  0  0  0  0
 10 35  1  0  0  0  0
 10 36  1  0  0  0  0
 11 37  1  0  0  0  0
 11 38  1  0  0  0  0
 12 20  2  0  0  0  0
 12 23  1  0  0  0  0
 13 26  1  0  0  0  0
 13 39  1  0  0  0  0
 13 40  1  0  0  0  0
 14 16  1  0  0  0  0
 14 24  2  0  0  0  0
 14 27  1  0  0  0  0
 15 18  1  0  0  0  0
 16 42  1  0  0  0  0
 16 43  1  0  0  0  0
 17 30  2  0  0  0  0
 17 32  1  0  0  0  0
 19 21  2  0  0  0  0
 19 24  1  0  0  0  0
 19 31  1  0  0  0  0
 20 22  1  0  0  0  0
 20 44  1  0  0  0  0
 21 29  1  0  0  0  0
 22 25  2  0  0  0  0
 23 28  2  0  0  0  0
 23 45  1  0  0  0  0
 24 46  1  0  0  0  0
 25 28  1  0  0  0  0
 27 29  2  0  0  0  0
 27 48  1  0  0  0  0
 28 49  1  0  0  0  0
 29 50  1  0  0  0  0
 30 51  1  0  0  0  0
 31 33  2  0  0  0  0
 31 52  1  0  0  0  0
 32 54  1  0  0  0  0
 32 55  1  0  0  0  0
 32 56  1  0  0  0  0
 33 57  1  0  0  0  0
 34 58  1  0  0  0  0
 34 59  1  0  0  0  0
M  END
> <PUBCHEM_COMPOUND_CID>
9825442

> <PUBCHEM_CONFORMER_RMSD>
1.4

> <PUBCHEM_CONFORMER_DIVERSEORDER>
1
23
14
171
103
144
139
143
123
97
22
30
159
104
75
62
39
138
32
52
129
20
151
78
128
64
31
10
91
115
126
167
162
53
6
34
185
122
27
156
174
66
182
33
127
55
100
24
141
98
113
155
69
142
163
28
176
175
105
37
12
106
153
154
88
183
181
71
86
59
180
56
16
51
149
90
4
17
110
140
147
157
161
15
124
35
132
40
92
130
96
83
36
111
173
164
137
135
89
42
170
184
49
118
160
68
158
150
77
21
50
81
117
29
38
85
67
177
8
54
94
65
79
74
168
13
3
112
41
121
131
114
48
109
108
146
82
186
169
18
25
47
101
19
125
148
178
9
57
2
172
116
145
95
134
119
80
58
60
73
120
76
133
84
102
136
152
11
43
61
93
107
7
45
46
26
166
87
70
165
99
5
63
179
72
44

> <PUBCHEM_MMFF94_PARTIAL_CHARGES>
45
1 -0.36
10 0.14
11 0.37
12 -0.14
13 0.36
14 -0.14
15 0.5
16 0.44
17 -0.03
18 0.63
2 -0.36
20 -0.15
21 -0.15
22 0.08
23 -0.15
24 -0.15
25 0.08
26 0.57
27 -0.15
28 -0.15
29 -0.15
3 -0.57
30 0.02
31 -0.15
32 0.14
33 -0.3
34 0.56
4 -0.57
41 0.4
44 0.15
45 0.15
46 0.15
47 0.37
48 0.15
49 0.15
5 -0.47
50 0.15
51 0.15
52 0.15
53 0.27
57 0.15
6 -0.82
7 -0.73
8 0.03
9 -0.62

> <PUBCHEM_EFFECTIVE_ROTOR_COUNT>
9.6

> <PUBCHEM_PHARMACOPHORE_FEATURES>
14
1 1 acceptor
1 2 acceptor
1 3 acceptor
1 4 acceptor
1 6 donor
1 7 donor
1 8 cation
1 8 donor
3 6 9 15 cation
5 1 2 22 25 34 rings
5 8 19 21 31 33 rings
6 12 20 22 23 25 28 rings
6 14 19 21 24 27 29 rings
6 5 9 15 17 18 30 rings

> <PUBCHEM_HEAVY_ATOM_COUNT>
34

> <PUBCHEM_ATOM_DEF_STEREO_COUNT>
0

> <PUBCHEM_ATOM_UDEF_STEREO_COUNT>
0

> <PUBCHEM_BOND_DEF_STEREO_COUNT>
0

> <PUBCHEM_BOND_UDEF_STEREO_COUNT>
0

> <PUBCHEM_ISOTOPIC_ATOM_COUNT>
0

> <PUBCHEM_COMPONENT_COUNT>
1

> <PUBCHEM_CACTVS_TAUTO_COUNT>
4

> <PUBCHEM_CONFORMER_ID>
0095ECA200000001

> <PUBCHEM_MMFF94_ENERGY>
74.9639

> <PUBCHEM_FEATURE_SELFOVERLAP>
71.295

> <PUBCHEM_SHAPE_FINGERPRINT>
10581848 197 17620249425864822409
11059048 146 18339648819750470646
12788726 201 18337109076892268746
12978246 48 17979350867809051728
1361 2 17545880425819205896
14251757 5 18411421743092613324
14279260 333 18410856560848364270
14363568 33 17398684882940692891
14932702 115 18201432545696170128
15001296 14 18335703866525150244
15320467 1 18338797917772513168
15326923 133 17553208009900096488
17627616 140 18266460897378056180
20764821 26 18053090723354239225
23559900 14 17547279013226396288
325973 47 18339638923813628088
338550 245 18051404077022869946
463206 1 18411986892185880456
474144 1 18043515136764602784
6371009 1 18049138000437641059
6608658 132 18199174247692236383
9980921 221 18119558594562712372

> <PUBCHEM_SHAPE_MULTIPOLES>
651.32
10.78
8.45
1.32
9.65
0.33
-0.16
4.57
-3.27
-5.97
1.9
0.53
-0.1
-0.94

> <PUBCHEM_SHAPE_SELFOVERLAP>
1431.828

> <PUBCHEM_SHAPE_VOLUME>
349.6

> <PUBCHEM_COORDINATE_TYPE>
2
5
10

$$$$
