99904
  -OEChem-03052615043D

 45 47  0     1  0  0  0  0  0999 V2000
   -1.6205    1.7416    1.3797 O   0  0  0  0  0  0  0  0  0  0  0  0
   -1.4639   -0.8558   -0.1386 O   0  0  0  0  0  0  0  0  0  0  0  0
    3.7317   -0.1342   -0.3830 O   0  0  0  0  0  0  0  0  0  0  0  0
   -3.7622    2.3485    0.7799 O   0  0  0  0  0  0  0  0  0  0  0  0
    2.9020    0.7017   -2.3590 O   0  0  0  0  0  0  0  0  0  0  0  0
   -2.0596   -2.5623   -1.5638 O   0  0  0  0  0  0  0  0  0  0  0  0
   -0.6524    1.4022   -0.7653 C   0  0  2  0  0  0  0  0  0  0  0  0
   -0.8599   -0.0890   -1.1783 C   0  0  1  0  0  0  0  0  0  0  0  0
   -0.3526    1.7919    0.6986 C   0  0  2  0  0  0  0  0  0  0  0  0
    0.3520   -0.8414   -1.7942 C   0  0  0  0  0  0  0  0  0  0  0  0
   -1.9838    2.0978   -0.8415 C   0  0  0  0  0  0  0  0  0  0  0  0
    1.6204   -0.8202   -1.0206 C   0  0  0  0  0  0  0  0  0  0  0  0
    0.6473    0.9436    1.4167 C   0  0  0  0  0  0  0  0  0  0  0  0
    3.1794   -0.9059    0.6937 C   0  0  1  0  0  0  0  0  0  0  0  0
    2.8941    0.0184    1.9099 C   0  0  0  0  0  0  0  0  0  0  0  0
    1.9684    1.1820    1.5539 C   0  0  0  0  0  0  0  0  0  0  0  0
    1.9429   -1.4680    0.0988 C   0  0  0  0  0  0  0  0  0  0  0  0
   -2.6033    2.1022    0.5016 C   0  0  0  0  0  0  0  0  0  0  0  0
    2.7877    0.0073   -1.3638 C   0  0  0  0  0  0  0  0  0  0  0  0
   -2.5568    2.6854   -1.8942 C   0  0  0  0  0  0  0  0  0  0  0  0
    2.6594    2.4762    1.2223 C   0  0  0  0  0  0  0  0  0  0  0  0
   -1.7650   -2.1469   -0.4519 C   0  0  0  0  0  0  0  0  0  0  0  0
   -1.6843   -2.9922    0.7717 C   0  0  0  0  0  0  0  0  0  0  0  0
   -1.9820   -2.4051    2.1174 C   0  0  0  0  0  0  0  0  0  0  0  0
   -1.3389   -4.2779    0.6098 C   0  0  0  0  0  0  0  0  0  0  0  0
    0.0709    1.8725   -1.4422 H   0  0  0  0  0  0  0  0  0  0  0  0
   -1.5960   -0.0738   -1.9975 H   0  0  0  0  0  0  0  0  0  0  0  0
   -0.0440    2.8438    0.7431 H   0  0  0  0  0  0  0  0  0  0  0  0
    0.5488   -0.3739   -2.7689 H   0  0  0  0  0  0  0  0  0  0  0  0
    0.1329   -1.8851   -2.0358 H   0  0  0  0  0  0  0  0  0  0  0  0
    0.2761   -0.0322    1.7206 H   0  0  0  0  0  0  0  0  0  0  0  0
    3.8889   -1.6962    0.9576 H   0  0  0  0  0  0  0  0  0  0  0  0
    3.8431    0.4225    2.2838 H   0  0  0  0  0  0  0  0  0  0  0  0
    2.4587   -0.5684    2.7289 H   0  0  0  0  0  0  0  0  0  0  0  0
    1.2964   -2.1630    0.6145 H   0  0  0  0  0  0  0  0  0  0  0  0
   -2.0668    2.6837   -2.8621 H   0  0  0  0  0  0  0  0  0  0  0  0
   -3.5199    3.1785   -1.8195 H   0  0  0  0  0  0  0  0  0  0  0  0
    1.9764    3.2713    0.9179 H   0  0  0  0  0  0  0  0  0  0  0  0
    3.3825    2.3412    0.4133 H   0  0  0  0  0  0  0  0  0  0  0  0
    3.1998    2.8394    2.1031 H   0  0  0  0  0  0  0  0  0  0  0  0
   -1.1900   -1.7163    2.4234 H   0  0  0  0  0  0  0  0  0  0  0  0
   -2.9304   -1.8584    2.0936 H   0  0  0  0  0  0  0  0  0  0  0  0
   -2.0679   -3.1774    2.8894 H   0  0  0  0  0  0  0  0  0  0  0  0
   -1.2610   -4.9468    1.4610 H   0  0  0  0  0  0  0  0  0  0  0  0
   -1.1184   -4.6988   -0.3657 H   0  0  0  0  0  0  0  0  0  0  0  0
  1  9  1  0  0  0  0
  1 18  1  0  0  0  0
  2  8  1  0  0  0  0
  2 22  1  0  0  0  0
  3 14  1  0  0  0  0
  3 19  1  0  0  0  0
  4 18  2  0  0  0  0
  5 19  2  0  0  0  0
  6 22  2  0  0  0  0
  7  8  1  0  0  0  0
  7  9  1  0  0  0  0
  7 11  1  0  0  0  0
  7 26  1  0  0  0  0
  8 10  1  0  0  0  0
  8 27  1  0  0  0  0
  9 13  1  0  0  0  0
  9 28  1  0  0  0  0
 10 12  1  0  0  0  0
 10 29  1  0  0  0  0
 10 30  1  0  0  0  0
 11 18  1  0  0  0  0
 11 20  2  0  0  0  0
 12 17  2  0  0  0  0
 12 19  1  0  0  0  0
 13 16  2  3  0  0  0
 13 31  1  0  0  0  0
 14 15  1  0  0  0  0
 14 17  1  0  0  0  0
 14 32  1  0  0  0  0
 15 16  1  0  0  0  0
 15 33  1  0  0  0  0
 15 34  1  0  0  0  0
 16 21  1  0  0  0  0
 17 35  1  0  0  0  0
 20 36  1  0  0  0  0
 20 37  1  0  0  0  0
 21 38  1  0  0  0  0
 21 39  1  0  0  0  0
 21 40  1  0  0  0  0
 22 23  1  0  0  0  0
 23 24  1  0  0  0  0
 23 25  2  0  0  0  0
 24 41  1  0  0  0  0
 24 42  1  0  0  0  0
 24 43  1  0  0  0  0
 25 44  1  0  0  0  0
 25 45  1  0  0  0  0
M  END
> <PUBCHEM_COMPOUND_CID>
99904

> <PUBCHEM_CONFORMER_RMSD>
0.8

> <PUBCHEM_CONFORMER_DIVERSEORDER>
1
95
99
55
52
84
88
103
38
89
45
39
26
33
69
63
75
12
24
108
23
91
71
93
73
85
107
70
92
20
6
32
40
9
59
43
62
106
25
72
58
35
14
17
101
104
96
34
53
97
78
76
10
22
80
36
48
29
8
57
3
90
77
98
27
46
30
83
66
2
19
67
16
37
21
81
13
5
41
42
15
51
18
44
86
60
50
47
102
74
68
56
11
64
49
65
28
82
54
87
105
109
79
31
100
61
94
4
7

> <PUBCHEM_MMFF94_PARTIAL_CHARGES>
31
1 -0.43
10 0.14
11 -0.12
12 -0.12
13 -0.29
14 0.42
15 0.14
16 -0.28
17 -0.29
18 0.71
19 0.71
2 -0.43
20 -0.3
21 0.14
22 0.71
23 -0.12
24 0.14
25 -0.3
3 -0.43
31 0.15
35 0.15
36 0.15
37 0.15
4 -0.57
44 0.15
45 0.15
5 -0.57
6 -0.57
7 0.14
8 0.28
9 0.42

> <PUBCHEM_EFFECTIVE_ROTOR_COUNT>
4

> <PUBCHEM_PHARMACOPHORE_FEATURES>
5
1 4 acceptor
1 5 acceptor
1 6 acceptor
5 1 7 9 11 18 rings
5 3 12 14 17 19 rings

> <PUBCHEM_HEAVY_ATOM_COUNT>
25

> <PUBCHEM_ATOM_DEF_STEREO_COUNT>
0

> <PUBCHEM_ATOM_UDEF_STEREO_COUNT>
4

> <PUBCHEM_BOND_DEF_STEREO_COUNT>
0

> <PUBCHEM_BOND_UDEF_STEREO_COUNT>
1

> <PUBCHEM_ISOTOPIC_ATOM_COUNT>
0

> <PUBCHEM_COMPONENT_COUNT>
1

> <PUBCHEM_CACTVS_TAUTO_COUNT>
1

> <PUBCHEM_CONFORMER_ID>
0001864000000001

> <PUBCHEM_MMFF94_ENERGY>
65.3681

> <PUBCHEM_FEATURE_SELFOVERLAP>
25.373

> <PUBCHEM_SHAPE_FINGERPRINT>
11578080 2 17915201193279317832
12156800 1 14679717731352435992
12633257 1 18201169801029600435
12716301 132 18341901778862661842
13149001 5 18202566138116292496
13681431 1 17471572599962542743
14223421 5 18127962225356161856
16945 1 17487041276460625956
18981168 100 16917075498614539056
20567600 347 18123469376385042913
20600515 1 17609180757755113831
20691752 17 18198610043413230557
21421861 104 17180265803430858667
22182313 1 17703506714332043888
22956985 138 17611471822788255323
23419403 2 17415591884557614852
2748010 2 17845640560436465672
3052486 1 18334009515059232163
35225 105 18335704918638839043
70251023 43 17915725656326413510
81228 2 18337665412459047143
9981440 41 16768962511951169368

> <PUBCHEM_SHAPE_MULTIPOLES>
479.27
5.19
4.17
2.15
2.33
2.38
0.24
-1.18
-0.36
-4.65
-0.8
0.48
-0.21
0.83

> <PUBCHEM_SHAPE_SELFOVERLAP>
1026.253

> <PUBCHEM_SHAPE_VOLUME>
264.2

> <PUBCHEM_COORDINATE_TYPE>
2
5
10

$$$$
