101673905
  -OEChem-02172602493D

 26 27  0     0  0  0  0  0  0999 V2000
   -1.4603    2.5907    0.0269 S   0  0  0  0  0  0  0  0  0  0  0  0
   -3.6640   -1.4277   -1.2021 O   0  0  0  0  0  0  0  0  0  0  0  0
   -3.5658   -1.5007    1.1270 O   0  0  0  0  0  0  0  0  0  0  0  0
   -0.7612    0.0798   -0.0435 N   0  0  0  0  0  0  0  0  0  0  0  0
   -3.1648    0.5529    0.0695 N   0  0  0  0  0  0  0  0  0  0  0  0
   -3.4682   -0.8189    0.0600 N   0  3  0  0  0  0  0  0  0  0  0  0
    0.4172    0.8403   -0.0244 C   0  0  0  0  0  0  0  0  0  0  0  0
    1.7539    0.2413   -0.0088 C   0  0  0  0  0  0  0  0  0  0  0  0
   -1.9152    0.8601    0.0175 C   0  0  0  0  0  0  0  0  0  0  0  0
    0.2328    2.1725    0.0055 C   0  0  0  0  0  0  0  0  0  0  0  0
   -0.8103   -1.3741   -0.0727 C   0  0  0  0  0  0  0  0  0  0  0  0
    2.3623   -0.0748    1.2059 C   0  0  0  0  0  0  0  0  0  0  0  0
    2.4181   -0.0130   -1.2086 C   0  0  0  0  0  0  0  0  0  0  0  0
    3.6352   -0.6453    1.2208 C   0  0  0  0  0  0  0  0  0  0  0  0
    3.6909   -0.5834   -1.1939 C   0  0  0  0  0  0  0  0  0  0  0  0
    4.2995   -0.8996    0.0209 C   0  0  0  0  0  0  0  0  0  0  0  0
    1.0106    2.9233    0.0308 H   0  0  0  0  0  0  0  0  0  0  0  0
   -1.2077   -1.7824    0.8586 H   0  0  0  0  0  0  0  0  0  0  0  0
    0.1913   -1.8094   -0.1617 H   0  0  0  0  0  0  0  0  0  0  0  0
   -1.3409   -1.7458   -0.9504 H   0  0  0  0  0  0  0  0  0  0  0  0
    1.8569    0.1163    2.1495 H   0  0  0  0  0  0  0  0  0  0  0  0
    1.9565    0.2267   -2.1635 H   0  0  0  0  0  0  0  0  0  0  0  0
    4.1089   -0.8918    2.1665 H   0  0  0  0  0  0  0  0  0  0  0  0
    4.2081   -0.7817   -2.1281 H   0  0  0  0  0  0  0  0  0  0  0  0
    5.2904   -1.3439    0.0324 H   0  0  0  0  0  0  0  0  0  0  0  0
   -3.8586   -2.3458   -0.9489 H   0  0  0  0  0  0  0  0  0  0  0  0
  1  9  1  0  0  0  0
  1 10  1  0  0  0  0
  2  6  1  0  0  0  0
  2 26  1  0  0  0  0
  3  6  2  0  0  0  0
  4  7  1  0  0  0  0
  4  9  1  0  0  0  0
  4 11  1  0  0  0  0
  5  6  1  0  0  0  0
  5  9  2  0  0  0  0
  7  8  1  0  0  0  0
  7 10  2  0  0  0  0
  8 12  2  0  0  0  0
  8 13  1  0  0  0  0
 10 17  1  0  0  0  0
 11 18  1  0  0  0  0
 11 19  1  0  0  0  0
 11 20  1  0  0  0  0
 12 14  1  0  0  0  0
 12 21  1  0  0  0  0
 13 15  2  0  0  0  0
 13 22  1  0  0  0  0
 14 16  2  0  0  0  0
 14 23  1  0  0  0  0
 15 16  1  0  0  0  0
 15 24  1  0  0  0  0
 16 25  1  0  0  0  0
M  CHG  1   6   1
M  END
> <PUBCHEM_COMPOUND_CID>
101673905

> <PUBCHEM_CONFORMER_RMSD>
0.6

> <PUBCHEM_CONFORMER_DIVERSEORDER>
1
2

> <PUBCHEM_MMFF94_PARTIAL_CHARGES>
23
1 -0.24
10 -0.05
11 0.37
12 -0.15
13 -0.15
14 -0.15
15 -0.15
16 -0.15
17 0.15
2 -0.54
21 0.15
22 0.15
23 0.15
24 0.15
25 0.15
26 0.4
3 -0.63
4 -0.52
5 -0.66
6 0.98
7 0.07
8 0.03
9 0.64

> <PUBCHEM_EFFECTIVE_ROTOR_COUNT>
2

> <PUBCHEM_PHARMACOPHORE_FEATURES>
5
1 2 acceptor
1 3 acceptor
3 4 5 9 cation
5 1 4 7 9 10 rings
6 8 12 13 14 15 16 rings

> <PUBCHEM_HEAVY_ATOM_COUNT>
16

> <PUBCHEM_ATOM_DEF_STEREO_COUNT>
0

> <PUBCHEM_ATOM_UDEF_STEREO_COUNT>
0

> <PUBCHEM_BOND_DEF_STEREO_COUNT>
1

> <PUBCHEM_BOND_UDEF_STEREO_COUNT>
0

> <PUBCHEM_ISOTOPIC_ATOM_COUNT>
0

> <PUBCHEM_COMPONENT_COUNT>
1

> <PUBCHEM_CACTVS_TAUTO_COUNT>
1

> <PUBCHEM_CONFORMER_ID>
060F6BB100000001

> <PUBCHEM_MMFF94_ENERGY>
60.89

> <PUBCHEM_FEATURE_SELFOVERLAP>
25.416

> <PUBCHEM_SHAPE_FINGERPRINT>
10062212 137 18261108539504481043
10618630 7 18412824694185933108
11046707 91 18411136926525513358
11132069 177 18130787841374391031
11543360 7 15647338588532804579
11578080 2 17460004393546425372
12032990 46 18411705395548898267
12236239 1 17677056737622148276
12363563 72 18411139181721083887
12553582 1 18409453617394912739
13296908 3 18130783439048899268
13538477 17 18115025186992050248
13581323 91 18411695453190075514
14115302 16 17676490574700945218
14252887 29 18202285822870188826
14289901 80 15482382144635956239
15219456 202 17489016060101154264
15653759 3 18060136492759798632
15848700 24 18343294903171152143
16752209 62 18261660498552163331
16945 1 18339079268052948733
17804303 29 18343022185548504793
17844478 74 17561080255345664632
18186145 218 11241962664156232074
18915474 69 17967820444245966986
19049666 15 17415283823780561284
19141452 34 17847062194880344031
19422 9 17967819289010293882
200 152 16515405136423627424
20281407 28 18201441350463177884
20361792 2 18409445920739535517
20510252 161 18272369724669349104
20645477 70 18266732679162134607
20871998 184 18272647909532026500
23402539 116 18410005508018205886
23402655 69 15502370102298502318
23532345 42 18343860035215892376
23557571 272 18200314295447996732
23559900 14 18055916494655916734
2748010 2 18339067294090504317
43471831 8 18191021205573570074
465052 167 18263096564181803203
57096353 35 17822305569467649260
5902787 121 18408886269194435873
6049 1 17775281621748312024
7364860 26 18127131007434997944
77492 1 17677060023272253172
81228 2 18339651027047662881

> <PUBCHEM_SHAPE_MULTIPOLES>
306.44
7.45
2.01
1.12
1.02
1
-0.01
-3.88
-0.01
-2.07
0.01
0.68
-0.3
-0.06

> <PUBCHEM_SHAPE_SELFOVERLAP>
635.376

> <PUBCHEM_SHAPE_VOLUME>
177.6

> <PUBCHEM_COORDINATE_TYPE>
2
5
10

$$$$
