537288
  -OEChem-02172602563D

 31 32  0     1  0  0  0  0  0999 V2000
   -0.1076    1.1796    1.3473 O   0  0  0  0  0  0  0  0  0  0  0  0
   -1.9828    0.6604    0.1456 O   0  0  0  0  0  0  0  0  0  0  0  0
    1.5705   -2.3467    1.4055 O   0  0  0  0  0  0  0  0  0  0  0  0
    2.3163    1.6559   -1.1645 O   0  0  0  0  0  0  0  0  0  0  0  0
   -0.5978    0.3569    0.2943 C   0  0  0  0  0  0  0  0  0  0  0  0
   -0.3830   -1.1116    0.6237 C   0  0  1  0  0  0  0  0  0  0  0  0
    0.2105    0.4505   -1.0216 C   0  0  3  0  0  0  0  0  0  0  0  0
   -0.9285   -1.9817   -0.5749 C   0  0  0  0  0  0  0  0  0  0  0  0
   -0.6451    0.1316   -2.2220 C   0  0  0  0  0  0  0  0  0  0  0  0
   -1.4098   -1.2018   -1.8742 C   0  0  0  0  0  0  0  0  0  0  0  0
    1.1586   -1.3166    0.8664 C   0  0  0  0  0  0  0  0  0  0  0  0
    1.6291    0.7828   -0.6492 C   0  0  0  0  0  0  0  0  0  0  0  0
    2.1716   -0.1978    0.4264 C   0  0  0  0  0  0  0  0  0  0  0  0
   -0.2977    2.5579    1.0616 C   0  0  0  0  0  0  0  0  0  0  0  0
   -2.7044    0.3805    1.3356 C   0  0  0  0  0  0  0  0  0  0  0  0
   -0.8600   -1.4149    1.5620 H   0  0  0  0  0  0  0  0  0  0  0  0
    0.0418    1.5312   -1.2216 H   0  0  0  0  0  0  0  0  0  0  0  0
   -1.7714   -2.5863   -0.2184 H   0  0  0  0  0  0  0  0  0  0  0  0
   -0.1503   -2.6912   -0.8828 H   0  0  0  0  0  0  0  0  0  0  0  0
   -0.0094   -0.0343   -3.0987 H   0  0  0  0  0  0  0  0  0  0  0  0
   -1.3789    0.9050   -2.4838 H   0  0  0  0  0  0  0  0  0  0  0  0
   -1.3670   -1.8805   -2.7345 H   0  0  0  0  0  0  0  0  0  0  0  0
   -2.4729   -0.9607   -1.7455 H   0  0  0  0  0  0  0  0  0  0  0  0
    2.4531    0.3761    1.3137 H   0  0  0  0  0  0  0  0  0  0  0  0
    3.0466   -0.6987    0.0004 H   0  0  0  0  0  0  0  0  0  0  0  0
   -1.3120    2.8072    0.7372 H   0  0  0  0  0  0  0  0  0  0  0  0
    0.4313    2.9339    0.3407 H   0  0  0  0  0  0  0  0  0  0  0  0
   -0.1185    3.1047    1.9931 H   0  0  0  0  0  0  0  0  0  0  0  0
   -2.2274    0.7539    2.2462 H   0  0  0  0  0  0  0  0  0  0  0  0
   -2.9104   -0.6901    1.4231 H   0  0  0  0  0  0  0  0  0  0  0  0
   -3.6754    0.8788    1.2506 H   0  0  0  0  0  0  0  0  0  0  0  0
  1  5  1  0  0  0  0
  1 14  1  0  0  0  0
  2  5  1  0  0  0  0
  2 15  1  0  0  0  0
  3 11  2  0  0  0  0
  4 12  2  0  0  0  0
  5  6  1  0  0  0  0
  5  7  1  0  0  0  0
  6  8  1  0  0  0  0
  6 11  1  0  0  0  0
  6 16  1  0  0  0  0
  7  9  1  0  0  0  0
  7 12  1  0  0  0  0
  7 17  1  0  0  0  0
  8 10  1  0  0  0  0
  8 18  1  0  0  0  0
  8 19  1  0  0  0  0
  9 10  1  0  0  0  0
  9 20  1  0  0  0  0
  9 21  1  0  0  0  0
 10 22  1  0  0  0  0
 10 23  1  0  0  0  0
 11 13  1  0  0  0  0
 12 13  1  0  0  0  0
 13 24  1  0  0  0  0
 13 25  1  0  0  0  0
 14 26  1  0  0  0  0
 14 27  1  0  0  0  0
 14 28  1  0  0  0  0
 15 29  1  0  0  0  0
 15 30  1  0  0  0  0
 15 31  1  0  0  0  0
M  END
> <PUBCHEM_COMPOUND_CID>
537288

> <PUBCHEM_CONFORMER_RMSD>
0.6

> <PUBCHEM_CONFORMER_DIVERSEORDER>
1
2

> <PUBCHEM_MMFF94_PARTIAL_CHARGES>
12
1 -0.56
11 0.45
12 0.45
13 0.12
14 0.28
15 0.28
2 -0.56
3 -0.57
4 -0.57
5 0.56
6 0.06
7 0.06

> <PUBCHEM_EFFECTIVE_ROTOR_COUNT>
3

> <PUBCHEM_PHARMACOPHORE_FEATURES>
7
1 1 acceptor
1 13 anion
1 2 acceptor
1 3 acceptor
1 4 acceptor
6 5 6 7 11 12 13 rings
6 5 6 7 8 9 10 rings

> <PUBCHEM_HEAVY_ATOM_COUNT>
15

> <PUBCHEM_ATOM_DEF_STEREO_COUNT>
0

> <PUBCHEM_ATOM_UDEF_STEREO_COUNT>
2

> <PUBCHEM_BOND_DEF_STEREO_COUNT>
0

> <PUBCHEM_BOND_UDEF_STEREO_COUNT>
0

> <PUBCHEM_ISOTOPIC_ATOM_COUNT>
0

> <PUBCHEM_COMPONENT_COUNT>
1

> <PUBCHEM_CACTVS_TAUTO_COUNT>
4

> <PUBCHEM_CONFORMER_ID>
000832C800000001

> <PUBCHEM_MMFF94_ENERGY>
99.4929

> <PUBCHEM_FEATURE_SELFOVERLAP>
36.268

> <PUBCHEM_SHAPE_FINGERPRINT>
10702982 57 18337687410933312575
12423570 1 13391802685854927782
13024252 1 12254128160698759492
137420 1 14208687229096348887
13898156 1 18200859730118310822
141345 1 14615401613801631341
144361 1 17026246072249743222
14817 1 14077725051910139699
15881359 60 16247124002518935352
16945 1 18040445364571380275
20511035 2 16692459253168096057
22112679 90 18131058359657576879
22344851 12 12354055518300058686
23419403 2 17024028159812419527
430814 3 18268733665317006332
5084963 1 17176929648421887207
528886 8 17172061148204562054
535629 181 17987522678802971236
54276843 12 18195246620263734202
68250623 7 17196310937553481945
68419 9 18201143421240130431

> <PUBCHEM_SHAPE_MULTIPOLES>
285.22
2.64
2.28
1.89
0.14
0.43
-0.6
0.23
0.16
-0.06
0.71
-0.1
-0.39
-1.19

> <PUBCHEM_SHAPE_SELFOVERLAP>
593.143

> <PUBCHEM_SHAPE_VOLUME>
160.6

> <PUBCHEM_COORDINATE_TYPE>
2
5
10

$$$$
