102434439
  -OEChem-02172602433D

 62 65  0     0  0  0  0  0  0999 V2000
    1.3331    1.8217   -1.5578 S   0  0  0  0  0  0  0  0  0  0  0  0
    0.8499    1.2834   -2.8167 O   0  0  0  0  0  0  0  0  0  0  0  0
    1.4173    3.2586   -1.3732 O   0  0  0  0  0  0  0  0  0  0  0  0
   -7.2477    0.4648   -0.7923 O   0  0  0  0  0  0  0  0  0  0  0  0
    0.8534   -4.8830    1.0513 O   0  0  0  0  0  0  0  0  0  0  0  0
    0.4581    1.1139   -0.2492 N   0  0  0  0  0  0  0  0  0  0  0  0
   -1.6914    0.0017   -0.2185 C   0  0  0  0  0  0  0  0  0  0  0  0
    2.9591    1.1553   -1.3308 C   0  0  0  0  0  0  0  0  0  0  0  0
   -0.9451    1.1258   -0.4086 C   0  0  0  0  0  0  0  0  0  0  0  0
    0.9211    1.4049    1.0934 C   0  0  0  0  0  0  0  0  0  0  0  0
   -3.1331    0.1209   -0.3663 C   0  0  0  0  0  0  0  0  0  0  0  0
   -1.0164   -1.2967    0.1180 C   0  0  0  0  0  0  0  0  0  0  0  0
    3.3111   -0.0478   -1.9427 C   0  0  0  0  0  0  0  0  0  0  0  0
    3.8861    1.8321   -0.5380 C   0  0  0  0  0  0  0  0  0  0  0  0
    1.6807    0.4640    1.7886 C   0  0  0  0  0  0  0  0  0  0  0  0
    0.6070    2.6260    1.6901 C   0  0  0  0  0  0  0  0  0  0  0  0
    5.5172    0.1027   -0.9692 C   0  0  0  0  0  0  0  0  0  0  0  0
    4.5901   -0.5741   -1.7618 C   0  0  0  0  0  0  0  0  0  0  0  0
    5.1651    1.3057   -0.3572 C   0  0  0  0  0  0  0  0  0  0  0  0
   -3.8499    0.9867    0.4598 C   0  0  0  0  0  0  0  0  0  0  0  0
   -1.3265   -1.9562    1.3074 C   0  0  0  0  0  0  0  0  0  0  0  0
   -3.7993   -0.6298   -1.3350 C   0  0  0  0  0  0  0  0  0  0  0  0
   -0.0782   -1.8427   -0.7581 C   0  0  0  0  0  0  0  0  0  0  0  0
    2.1261    0.7440    3.0804 C   0  0  0  0  0  0  0  0  0  0  0  0
    1.0526    2.9061    2.9820 C   0  0  0  0  0  0  0  0  0  0  0  0
   -5.2325    1.1022    0.3169 C   0  0  0  0  0  0  0  0  0  0  0  0
   -0.6984   -3.1615    1.6208 C   0  0  0  0  0  0  0  0  0  0  0  0
   -5.1819   -0.5144   -1.4780 C   0  0  0  0  0  0  0  0  0  0  0  0
    0.5500   -3.0479   -0.4447 C   0  0  0  0  0  0  0  0  0  0  0  0
   -5.8985    0.3517   -0.6520 C   0  0  0  0  0  0  0  0  0  0  0  0
    0.2400   -3.7073    0.7448 C   0  0  0  0  0  0  0  0  0  0  0  0
    1.8121    1.9652    3.6770 C   0  0  0  0  0  0  0  0  0  0  0  0
    6.8847   -0.4601   -0.7759 C   0  0  0  0  0  0  0  0  0  0  0  0
   -7.9179    1.3687    0.0852 C   0  0  0  0  0  0  0  0  0  0  0  0
    1.8023   -5.3844    0.1109 C   0  0  0  0  0  0  0  0  0  0  0  0
   -1.3811    2.0689   -0.7260 H   0  0  0  0  0  0  0  0  0  0  0  0
    2.6039   -0.5956   -2.5587 H   0  0  0  0  0  0  0  0  0  0  0  0
    3.6328    2.7692   -0.0505 H   0  0  0  0  0  0  0  0  0  0  0  0
    1.9361   -0.4895    1.3347 H   0  0  0  0  0  0  0  0  0  0  0  0
    0.0186    3.3738    1.1649 H   0  0  0  0  0  0  0  0  0  0  0  0
    4.8523   -1.5124   -2.2435 H   0  0  0  0  0  0  0  0  0  0  0  0
    5.8787    1.8426    0.2621 H   0  0  0  0  0  0  0  0  0  0  0  0
   -3.3503    1.5755    1.2259 H   0  0  0  0  0  0  0  0  0  0  0  0
   -2.0516   -1.5426    2.0038 H   0  0  0  0  0  0  0  0  0  0  0  0
   -3.2577   -1.3071   -1.9910 H   0  0  0  0  0  0  0  0  0  0  0  0
    0.1629   -1.3568   -1.6998 H   0  0  0  0  0  0  0  0  0  0  0  0
    2.7185    0.0117    3.6210 H   0  0  0  0  0  0  0  0  0  0  0  0
    0.8087    3.8571    3.4463 H   0  0  0  0  0  0  0  0  0  0  0  0
   -5.7272    1.7921    0.9920 H   0  0  0  0  0  0  0  0  0  0  0  0
   -0.9429   -3.6699    2.5494 H   0  0  0  0  0  0  0  0  0  0  0  0
   -5.6953   -1.1008   -2.2351 H   0  0  0  0  0  0  0  0  0  0  0  0
    1.2659   -3.4169   -1.1712 H   0  0  0  0  0  0  0  0  0  0  0  0
    2.1594    2.1834    4.6826 H   0  0  0  0  0  0  0  0  0  0  0  0
    7.5581   -0.0865   -1.5537 H   0  0  0  0  0  0  0  0  0  0  0  0
    7.2911   -0.1836    0.2029 H   0  0  0  0  0  0  0  0  0  0  0  0
    6.8712   -1.5545   -0.8192 H   0  0  0  0  0  0  0  0  0  0  0  0
   -8.9831    1.3325   -0.1657 H   0  0  0  0  0  0  0  0  0  0  0  0
   -7.5875    2.4011   -0.0716 H   0  0  0  0  0  0  0  0  0  0  0  0
   -7.8252    1.0573    1.1311 H   0  0  0  0  0  0  0  0  0  0  0  0
    2.1921   -6.3245    0.5149 H   0  0  0  0  0  0  0  0  0  0  0  0
    2.6552   -4.7062   -0.0005 H   0  0  0  0  0  0  0  0  0  0  0  0
    1.3311   -5.6200   -0.8494 H   0  0  0  0  0  0  0  0  0  0  0  0
  1  2  2  0  0  0  0
  1  3  2  0  0  0  0
  1  6  1  0  0  0  0
  1  8  1  0  0  0  0
  4 30  1  0  0  0  0
  4 34  1  0  0  0  0
  5 31  1  0  0  0  0
  5 35  1  0  0  0  0
  6  9  1  0  0  0  0
  6 10  1  0  0  0  0
  7  9  2  0  0  0  0
  7 11  1  0  0  0  0
  7 12  1  0  0  0  0
  8 13  2  0  0  0  0
  8 14  1  0  0  0  0
  9 36  1  0  0  0  0
 10 15  2  0  0  0  0
 10 16  1  0  0  0  0
 11 20  2  0  0  0  0
 11 22  1  0  0  0  0
 12 21  2  0  0  0  0
 12 23  1  0  0  0  0
 13 18  1  0  0  0  0
 13 37  1  0  0  0  0
 14 19  2  0  0  0  0
 14 38  1  0  0  0  0
 15 24  1  0  0  0  0
 15 39  1  0  0  0  0
 16 25  2  0  0  0  0
 16 40  1  0  0  0  0
 17 18  2  0  0  0  0
 17 19  1  0  0  0  0
 17 33  1  0  0  0  0
 18 41  1  0  0  0  0
 19 42  1  0  0  0  0
 20 26  1  0  0  0  0
 20 43  1  0  0  0  0
 21 27  1  0  0  0  0
 21 44  1  0  0  0  0
 22 28  2  0  0  0  0
 22 45  1  0  0  0  0
 23 29  2  0  0  0  0
 23 46  1  0  0  0  0
 24 32  2  0  0  0  0
 24 47  1  0  0  0  0
 25 32  1  0  0  0  0
 25 48  1  0  0  0  0
 26 30  2  0  0  0  0
 26 49  1  0  0  0  0
 27 31  2  0  0  0  0
 27 50  1  0  0  0  0
 28 30  1  0  0  0  0
 28 51  1  0  0  0  0
 29 31  1  0  0  0  0
 29 52  1  0  0  0  0
 32 53  1  0  0  0  0
 33 54  1  0  0  0  0
 33 55  1  0  0  0  0
 33 56  1  0  0  0  0
 34 57  1  0  0  0  0
 34 58  1  0  0  0  0
 34 59  1  0  0  0  0
 35 60  1  0  0  0  0
 35 61  1  0  0  0  0
 35 62  1  0  0  0  0
M  END
> <PUBCHEM_COMPOUND_CID>
102434439

> <PUBCHEM_CONFORMER_RMSD>
1

> <PUBCHEM_CONFORMER_DIVERSEORDER>
1
4
18
16
2
6
5
9
8
14
21
3
19
12
11
10
20
17
15
13
7

> <PUBCHEM_MMFF94_PARTIAL_CHARGES>
53
1 1.45
10 0.2
11 0.03
12 0.03
13 -0.15
14 -0.15
15 -0.15
16 -0.15
17 -0.14
18 -0.15
19 -0.15
2 -0.65
20 -0.15
21 -0.15
22 -0.15
23 -0.15
24 -0.15
25 -0.15
26 -0.15
27 -0.15
28 -0.15
29 -0.15
3 -0.65
30 0.08
31 0.08
32 -0.15
33 0.14
34 0.28
35 0.28
36 0.15
37 0.15
38 0.15
39 0.15
4 -0.36
40 0.15
41 0.15
42 0.15
43 0.15
44 0.15
45 0.15
46 0.15
47 0.15
48 0.15
49 0.15
5 -0.36
50 0.15
51 0.15
52 0.15
53 0.15
6 -0.53
7 -0.06
8 -0.01
9 0.04

> <PUBCHEM_EFFECTIVE_ROTOR_COUNT>
8

> <PUBCHEM_PHARMACOPHORE_FEATURES>
8
1 2 acceptor
1 3 acceptor
1 4 acceptor
1 5 acceptor
6 10 15 16 24 25 32 rings
6 11 20 22 26 28 30 rings
6 12 21 23 27 29 31 rings
6 8 13 14 17 18 19 rings

> <PUBCHEM_HEAVY_ATOM_COUNT>
35

> <PUBCHEM_ATOM_DEF_STEREO_COUNT>
0

> <PUBCHEM_ATOM_UDEF_STEREO_COUNT>
0

> <PUBCHEM_BOND_DEF_STEREO_COUNT>
0

> <PUBCHEM_BOND_UDEF_STEREO_COUNT>
0

> <PUBCHEM_ISOTOPIC_ATOM_COUNT>
0

> <PUBCHEM_COMPONENT_COUNT>
1

> <PUBCHEM_CACTVS_TAUTO_COUNT>
2

> <PUBCHEM_CONFORMER_ID>
061B068700000001

> <PUBCHEM_MMFF94_ENERGY>
136.6173

> <PUBCHEM_FEATURE_SELFOVERLAP>
40.618

> <PUBCHEM_SHAPE_FINGERPRINT>
107951 10 17313109691250967434
10930396 42 18199725052379640096
11578080 2 17980203307433644160
11828532 37 18058731450613134485
12156800 1 16197054583889858570
12160290 23 17538541602795819427
12788726 201 17917163693471511832
12977781 61 17556569169363729778
13636023 51 12469726834723932585
13692114 37 18194387013505912987
14028597 1 17986686882319589104
14068700 675 17915185616250385414
15297060 5 18336833077962008827
15775530 1 17625539364588260888
17980427 26 17914583229194920109
18681886 176 18114463474026387165
19319366 153 18411982425535774943
20554085 129 18340194259132866777
20832881 197 17917713512918676617
21344244 246 18335140856458309951
23559900 14 18058724857332582185
244849 19 17772467043320779770
24893992 56 18410858776913754031
340366 18 17749964387081415588
376196 1 16841319246498651145
469060 322 17179967328688851546
513532 50 17632282497750548770
5385378 56 18261398793573809911
6523845 18 18339367457033870635
6679774 75 18042106760875076114
70251023 43 16485875514203392740

> <PUBCHEM_SHAPE_MULTIPOLES>
695.67
12.94
4.66
2.72
16.8
7.41
1.92
-4.99
-7.04
-2.79
2.74
-2.42
-1.83
0.38

> <PUBCHEM_SHAPE_SELFOVERLAP>
1498.308

> <PUBCHEM_SHAPE_VOLUME>
384.9

> <PUBCHEM_COORDINATE_TYPE>
2
5
10

$$$$
