101231701
  -OEChem-02172602493D

 16 16  0     1  0  0  0  0  0999 V2000
    2.7535   -0.1095   -0.4854 Cl  0  0  0  0  0  0  0  0  0  0  0  0
   -0.0004    1.9615    1.0319 O   0  0  0  0  0  0  0  0  0  0  0  0
   -0.0052    0.3210   -0.7247 C   0  0  2  0  0  0  0  0  0  0  0  0
   -1.1954   -0.4289   -0.1801 C   0  0  0  0  0  0  0  0  0  0  0  0
    1.1310   -0.4664   -0.1493 C   0  0  0  0  0  0  0  0  0  0  0  0
   -0.7686   -1.4482    0.5853 C   0  0  0  0  0  0  0  0  0  0  0  0
    0.6730   -1.4725    0.6043 C   0  0  0  0  0  0  0  0  0  0  0  0
   -2.5971   -0.0697   -0.5128 C   0  0  0  0  0  0  0  0  0  0  0  0
    0.0091    1.7128   -0.1692 C   0  0  0  0  0  0  0  0  0  0  0  0
    0.0069    0.3331   -1.8183 H   0  0  0  0  0  0  0  0  0  0  0  0
   -1.3884   -2.1679    1.0962 H   0  0  0  0  0  0  0  0  0  0  0  0
    1.2590   -2.2096    1.1293 H   0  0  0  0  0  0  0  0  0  0  0  0
   -2.8353    0.9346   -0.1497 H   0  0  0  0  0  0  0  0  0  0  0  0
   -3.3077   -0.7680   -0.0588 H   0  0  0  0  0  0  0  0  0  0  0  0
   -2.7488   -0.0926   -1.5963 H   0  0  0  0  0  0  0  0  0  0  0  0
    0.0283    2.5261   -0.9148 H   0  0  0  0  0  0  0  0  0  0  0  0
  1  5  1  0  0  0  0
  2  9  2  0  0  0  0
  3  4  1  0  0  0  0
  3  5  1  0  0  0  0
  3  9  1  0  0  0  0
  3 10  1  0  0  0  0
  4  6  2  0  0  0  0
  4  8  1  0  0  0  0
  5  7  2  0  0  0  0
  6  7  1  0  0  0  0
  6 11  1  0  0  0  0
  7 12  1  0  0  0  0
  8 13  1  0  0  0  0
  8 14  1  0  0  0  0
  8 15  1  0  0  0  0
  9 16  1  0  0  0  0
M  END
> <PUBCHEM_COMPOUND_CID>
101231701

> <PUBCHEM_CONFORMER_RMSD>
0.4

> <PUBCHEM_CONFORMER_DIVERSEORDER>
1
2

> <PUBCHEM_MMFF94_PARTIAL_CHARGES>
11
1 -0.14
11 0.15
12 0.15
16 0.06
2 -0.57
3 0.34
4 -0.28
6 -0.15
7 -0.15
8 0.14
9 0.45

> <PUBCHEM_EFFECTIVE_ROTOR_COUNT>
1.2

> <PUBCHEM_PHARMACOPHORE_FEATURES>
2
1 2 acceptor
5 3 4 5 6 7 rings

> <PUBCHEM_HEAVY_ATOM_COUNT>
9

> <PUBCHEM_ATOM_DEF_STEREO_COUNT>
1

> <PUBCHEM_ATOM_UDEF_STEREO_COUNT>
0

> <PUBCHEM_BOND_DEF_STEREO_COUNT>
0

> <PUBCHEM_BOND_UDEF_STEREO_COUNT>
0

> <PUBCHEM_ISOTOPIC_ATOM_COUNT>
0

> <PUBCHEM_COMPONENT_COUNT>
1

> <PUBCHEM_CACTVS_TAUTO_COUNT>
5

> <PUBCHEM_CONFORMER_ID>
0608AC5500000001

> <PUBCHEM_MMFF94_ENERGY>
16.0225

> <PUBCHEM_FEATURE_SELFOVERLAP>
10.148

> <PUBCHEM_SHAPE_FINGERPRINT>
12423570 1 16660364779019814895
13024252 1 18260841379669572806
137420 1 17194096400744278989
16945 1 18186238428723776910
18185500 45 18119241762375898799
21040471 1 18113612430240129639
23552423 10 17900258598334784910
2748010 2 17974850880159428263
29004967 10 18131078163910164358
369184 2 14057003853679211550
5084963 1 17971475345440183535
68250623 7 17696202404278341654

> <PUBCHEM_SHAPE_MULTIPOLES>
181.22
2.74
1.8
0.9
0.42
0.5
0.08
-0.29
-0.78
-0.04
0.59
-0.01
0.14
0.01

> <PUBCHEM_SHAPE_SELFOVERLAP>
366.68

> <PUBCHEM_SHAPE_VOLUME>
107.2

> <PUBCHEM_COORDINATE_TYPE>
2
5
10

$$$$
