5364700
  -OEChem-02172602473D

 25 25  0     0  0  0  0  0  0999 V2000
   -0.4726   -0.3806    0.6441 S   0  0  0  0  0  0  0  0  0  0  0  0
   -0.5879   -1.8019    0.9262 O   0  0  0  0  0  0  0  0  0  0  0  0
   -0.8394    0.5958    1.6565 O   0  0  0  0  0  0  0  0  0  0  0  0
   -1.3853   -0.0141   -0.8181 C   0  0  0  0  0  0  0  0  0  0  0  0
    1.2102   -0.0826    0.1880 C   0  0  0  0  0  0  0  0  0  0  0  0
    1.7445    1.1807    0.3694 C   0  0  0  0  0  0  0  0  0  0  0  0
    1.9590   -1.1179   -0.3425 C   0  0  0  0  0  0  0  0  0  0  0  0
   -2.8206   -0.2957   -0.5283 C   0  0  0  0  0  0  0  0  0  0  0  0
    3.0711    1.4164    0.0084 C   0  0  0  0  0  0  0  0  0  0  0  0
    3.2856   -0.8824   -0.7034 C   0  0  0  0  0  0  0  0  0  0  0  0
    3.8416    0.3849   -0.5280 C   0  0  0  0  0  0  0  0  0  0  0  0
   -3.7829    0.6371   -0.5749 C   0  0  0  0  0  0  0  0  0  0  0  0
   -5.2233    0.3603   -0.2975 C   0  0  0  0  0  0  0  0  0  0  0  0
   -1.2058    1.0319   -1.0834 H   0  0  0  0  0  0  0  0  0  0  0  0
   -1.0282   -0.6614   -1.6238 H   0  0  0  0  0  0  0  0  0  0  0  0
    1.1582    1.9978    0.7780 H   0  0  0  0  0  0  0  0  0  0  0  0
    1.5421   -2.1086   -0.4946 H   0  0  0  0  0  0  0  0  0  0  0  0
   -3.0907   -1.3223   -0.2921 H   0  0  0  0  0  0  0  0  0  0  0  0
    3.5036    2.4035    0.1430 H   0  0  0  0  0  0  0  0  0  0  0  0
    3.8852   -1.6848   -1.1230 H   0  0  0  0  0  0  0  0  0  0  0  0
    4.8742    0.5686   -0.8100 H   0  0  0  0  0  0  0  0  0  0  0  0
   -3.5243    1.6631   -0.8226 H   0  0  0  0  0  0  0  0  0  0  0  0
   -5.5642    0.9703    0.5446 H   0  0  0  0  0  0  0  0  0  0  0  0
   -5.4047   -0.6910   -0.0526 H   0  0  0  0  0  0  0  0  0  0  0  0
   -5.8270    0.6155   -1.1737 H   0  0  0  0  0  0  0  0  0  0  0  0
  1  2  2  0  0  0  0
  1  3  2  0  0  0  0
  1  4  1  0  0  0  0
  1  5  1  0  0  0  0
  4  8  1  0  0  0  0
  4 14  1  0  0  0  0
  4 15  1  0  0  0  0
  5  6  2  0  0  0  0
  5  7  1  0  0  0  0
  6  9  1  0  0  0  0
  6 16  1  0  0  0  0
  7 10  2  0  0  0  0
  7 17  1  0  0  0  0
  8 12  2  0  0  0  0
  8 18  1  0  0  0  0
  9 11  2  0  0  0  0
  9 19  1  0  0  0  0
 10 11  1  0  0  0  0
 10 20  1  0  0  0  0
 11 21  1  0  0  0  0
 12 13  1  0  0  0  0
 12 22  1  0  0  0  0
 13 23  1  0  0  0  0
 13 24  1  0  0  0  0
 13 25  1  0  0  0  0
M  END
> <PUBCHEM_COMPOUND_CID>
5364700

> <PUBCHEM_CONFORMER_RMSD>
0.6

> <PUBCHEM_CONFORMER_DIVERSEORDER>
1
2
3
4

> <PUBCHEM_MMFF94_PARTIAL_CHARGES>
20
1 1.2
10 -0.15
11 -0.15
12 -0.29
13 0.14
16 0.15
17 0.15
18 0.15
19 0.15
2 -0.65
20 0.15
21 0.15
22 0.15
3 -0.65
4 0.24
5 -0.01
6 -0.15
7 -0.15
8 -0.29
9 -0.15

> <PUBCHEM_EFFECTIVE_ROTOR_COUNT>
3

> <PUBCHEM_PHARMACOPHORE_FEATURES>
4
1 13 hydrophobe
1 2 acceptor
1 3 acceptor
6 5 6 7 9 10 11 rings

> <PUBCHEM_HEAVY_ATOM_COUNT>
13

> <PUBCHEM_ATOM_DEF_STEREO_COUNT>
0

> <PUBCHEM_ATOM_UDEF_STEREO_COUNT>
0

> <PUBCHEM_BOND_DEF_STEREO_COUNT>
1

> <PUBCHEM_BOND_UDEF_STEREO_COUNT>
0

> <PUBCHEM_ISOTOPIC_ATOM_COUNT>
0

> <PUBCHEM_COMPONENT_COUNT>
1

> <PUBCHEM_CACTVS_TAUTO_COUNT>
1

> <PUBCHEM_CONFORMER_ID>
0051DBDC00000001

> <PUBCHEM_MMFF94_ENERGY>
14.4367

> <PUBCHEM_FEATURE_SELFOVERLAP>
20.315

> <PUBCHEM_SHAPE_FINGERPRINT>
10498660 4 17677599879176391013
10922049 32 17967533467468865299
11132069 177 16515406270379324687
11471102 20 18342175566100944724
12251169 10 11314030175157634408
14115302 16 16343698863199195309
14252887 29 10592044686725785397
14911166 2 18410300198709655942
14943859 89 16950565488619229249
14993402 34 16845577538641271652
15775835 57 17458057170720596747
16945 1 17845387690263407506
17834072 33 18273206526575505399
18186145 218 18408595959712421613
200 152 17561084691782760380
20201158 50 18413111662721383326
20281407 28 14189576342631898173
20645477 56 18040997401081753500
20645477 70 18201721717180558382
20653085 51 18113622334381784785
20671657 53 15770057237366499825
20871999 31 17702934972126880935
21119208 17 17775566442071685269
21501925 9 10447926183103955695
22485316 2 11959729365359288317
23402539 116 18187634834440042012
23402655 69 18344146990180703732
23557571 272 17896615057291740386
25 1 18408038494179211446
276578 36 16226041176293995504
366044 4 17748543744975273427
4047638 21 18113617893659874820
4990 188 18411700971991182943
522135 26 18202280290651494845
8030462 33 17845950597093121592
9882013 296 12035448328933324277

> <PUBCHEM_SHAPE_MULTIPOLES>
259.64
8.2
1.32
1.04
7.48
0.11
0.25
-1.7
-2.55
-0.82
0.17
0.2
0.03
0.3

> <PUBCHEM_SHAPE_SELFOVERLAP>
515.313

> <PUBCHEM_SHAPE_VOLUME>
153.7

> <PUBCHEM_COORDINATE_TYPE>
2
5
10

$$$$
