101744238
  -OEChem-02172602423D

 69 71  0     1  0  0  0  0  0999 V2000
   -7.2343    0.6899   -0.6151 Cl  0  0  0  0  0  0  0  0  0  0  0  0
    0.3279   -2.1695    1.1235 O   0  0  0  0  0  0  0  0  0  0  0  0
   -2.0310    0.1841    1.0344 O   0  0  0  0  0  0  0  0  0  0  0  0
   -2.5797   -0.1730   -1.2403 O   0  0  0  0  0  0  0  0  0  0  0  0
    3.8510   -0.4587   -0.2157 O   0  0  0  0  0  0  0  0  0  0  0  0
   -4.6640    3.3478   -0.7695 O   0  0  0  0  0  0  0  0  0  0  0  0
   -1.1223   -1.0137   -2.8252 O   0  0  0  0  0  0  0  0  0  0  0  0
   -4.3677    1.6267    0.6676 N   0  0  0  0  0  0  0  0  0  0  0  0
   -1.0500   -2.5344    1.2946 C   0  0  2  0  0  0  0  0  0  0  0  0
    1.0045   -2.8764    0.0743 C   0  0  2  0  0  0  0  0  0  0  0  0
   -1.1917   -4.0386    1.5595 C   0  0  0  0  0  0  0  0  0  0  0  0
    0.9731   -4.3872    0.3288 C   0  0  0  0  0  0  0  0  0  0  0  0
   -1.9131   -2.0380    0.1354 C   0  0  0  0  0  0  0  0  0  0  0  0
   -0.4506   -4.8323    0.5189 C   0  0  0  0  0  0  0  0  0  0  0  0
    2.4399   -2.3658    0.0336 C   0  0  0  0  0  0  0  0  0  0  0  0
   -1.7057   -0.5482   -0.1536 C   0  0  2  0  0  0  0  0  0  0  0  0
    2.4897   -0.8630   -0.1706 C   0  0  0  0  0  0  0  0  0  0  0  0
   -1.0113   -5.8245   -0.1853 C   0  0  0  0  0  0  0  0  0  0  0  0
   -1.8623    1.5855    0.8666 C   0  0  2  0  0  0  0  0  0  0  0  0
   -1.4856    2.2370    2.2064 C   0  0  0  0  0  0  0  0  0  0  0  0
   -3.1515    2.1534    0.3152 C   0  0  0  0  0  0  0  0  0  0  0  0
    3.9729    0.9470   -0.3864 C   0  0  0  0  0  0  0  0  0  0  0  0
   -2.1670   -0.4628   -2.5067 C   0  0  0  0  0  0  0  0  0  0  0  0
   -0.2120    1.6685    2.7673 C   0  0  0  0  0  0  0  0  0  0  0  0
   -3.3268    3.1985   -0.5573 C   0  0  0  0  0  0  0  0  0  0  0  0
    5.4280    1.3113   -0.4264 C   0  0  0  0  0  0  0  0  0  0  0  0
   -3.2011    0.0030   -3.4863 C   0  0  0  0  0  0  0  0  0  0  0  0
   -5.2191    2.3703   -0.0018 C   0  0  0  0  0  0  0  0  0  0  0  0
    6.1009    1.6268    0.7540 C   0  0  0  0  0  0  0  0  0  0  0  0
    6.1077    1.3346   -1.6441 C   0  0  0  0  0  0  0  0  0  0  0  0
    0.8912    2.3885    2.9995 C   0  0  0  0  0  0  0  0  0  0  0  0
   -6.6873    2.2852   -0.0291 C   0  0  0  0  0  0  0  0  0  0  0  0
    7.4536    1.9657    0.7166 C   0  0  0  0  0  0  0  0  0  0  0  0
    7.4602    1.6734   -1.6817 C   0  0  0  0  0  0  0  0  0  0  0  0
    8.1332    1.9890   -0.5013 C   0  0  0  0  0  0  0  0  0  0  0  0
   -1.3807   -2.0186    2.2045 H   0  0  0  0  0  0  0  0  0  0  0  0
    0.5270   -2.6452   -0.8855 H   0  0  0  0  0  0  0  0  0  0  0  0
   -2.2494   -4.3201    1.6160 H   0  0  0  0  0  0  0  0  0  0  0  0
   -0.7433   -4.2718    2.5340 H   0  0  0  0  0  0  0  0  0  0  0  0
    1.5280   -4.6278    1.2448 H   0  0  0  0  0  0  0  0  0  0  0  0
    1.4573   -4.9199   -0.4979 H   0  0  0  0  0  0  0  0  0  0  0  0
   -2.9691   -2.2144    0.3797 H   0  0  0  0  0  0  0  0  0  0  0  0
   -1.7225   -2.6158   -0.7753 H   0  0  0  0  0  0  0  0  0  0  0  0
    3.0056   -2.8688   -0.7602 H   0  0  0  0  0  0  0  0  0  0  0  0
    2.9555   -2.6018    0.9738 H   0  0  0  0  0  0  0  0  0  0  0  0
   -0.6631   -0.3407   -0.4243 H   0  0  0  0  0  0  0  0  0  0  0  0
    1.9975   -0.5930   -1.1124 H   0  0  0  0  0  0  0  0  0  0  0  0
    1.9885   -0.3401    0.6519 H   0  0  0  0  0  0  0  0  0  0  0  0
   -2.0452   -6.1120   -0.0270 H   0  0  0  0  0  0  0  0  0  0  0  0
   -0.4486   -6.3702   -0.9352 H   0  0  0  0  0  0  0  0  0  0  0  0
   -1.0506    1.7874    0.1529 H   0  0  0  0  0  0  0  0  0  0  0  0
   -1.4094    3.3251    2.0870 H   0  0  0  0  0  0  0  0  0  0  0  0
   -2.2785    2.0529    2.9431 H   0  0  0  0  0  0  0  0  0  0  0  0
    3.4764    1.4711    0.4399 H   0  0  0  0  0  0  0  0  0  0  0  0
    3.4809    1.2569   -1.3169 H   0  0  0  0  0  0  0  0  0  0  0  0
   -0.1984    0.6092    3.0109 H   0  0  0  0  0  0  0  0  0  0  0  0
   -2.6755    3.8834   -1.0791 H   0  0  0  0  0  0  0  0  0  0  0  0
   -4.1513   -0.5000   -3.2897 H   0  0  0  0  0  0  0  0  0  0  0  0
   -3.3177    1.0873   -3.4142 H   0  0  0  0  0  0  0  0  0  0  0  0
   -2.8786   -0.2472   -4.5010 H   0  0  0  0  0  0  0  0  0  0  0  0
    5.5827    1.6103    1.7091 H   0  0  0  0  0  0  0  0  0  0  0  0
    5.5948    1.0888   -2.5702 H   0  0  0  0  0  0  0  0  0  0  0  0
    1.7773    1.9182    3.4118 H   0  0  0  0  0  0  0  0  0  0  0  0
    0.9321    3.4499    2.7818 H   0  0  0  0  0  0  0  0  0  0  0  0
   -7.1261    3.0423   -0.6853 H   0  0  0  0  0  0  0  0  0  0  0  0
   -7.0955    2.4240    0.9760 H   0  0  0  0  0  0  0  0  0  0  0  0
    7.9777    2.2109    1.6357 H   0  0  0  0  0  0  0  0  0  0  0  0
    7.9897    1.6911   -2.6298 H   0  0  0  0  0  0  0  0  0  0  0  0
    9.1864    2.2525   -0.5305 H   0  0  0  0  0  0  0  0  0  0  0  0
  1 32  1  0  0  0  0
  2  9  1  0  0  0  0
  2 10  1  0  0  0  0
  3 16  1  0  0  0  0
  3 19  1  0  0  0  0
  4 16  1  0  0  0  0
  4 23  1  0  0  0  0
  5 17  1  0  0  0  0
  5 22  1  0  0  0  0
  6 25  1  0  0  0  0
  6 28  1  0  0  0  0
  7 23  2  0  0  0  0
  8 21  1  0  0  0  0
  8 28  2  0  0  0  0
  9 11  1  0  0  0  0
  9 13  1  0  0  0  0
  9 36  1  0  0  0  0
 10 12  1  0  0  0  0
 10 15  1  0  0  0  0
 10 37  1  0  0  0  0
 11 14  1  0  0  0  0
 11 38  1  0  0  0  0
 11 39  1  0  0  0  0
 12 14  1  0  0  0  0
 12 40  1  0  0  0  0
 12 41  1  0  0  0  0
 13 16  1  0  0  0  0
 13 42  1  0  0  0  0
 13 43  1  0  0  0  0
 14 18  2  0  0  0  0
 15 17  1  0  0  0  0
 15 44  1  0  0  0  0
 15 45  1  0  0  0  0
 16 46  1  0  0  0  0
 17 47  1  0  0  0  0
 17 48  1  0  0  0  0
 18 49  1  0  0  0  0
 18 50  1  0  0  0  0
 19 20  1  0  0  0  0
 19 21  1  0  0  0  0
 19 51  1  0  0  0  0
 20 24  1  0  0  0  0
 20 52  1  0  0  0  0
 20 53  1  0  0  0  0
 21 25  2  0  0  0  0
 22 26  1  0  0  0  0
 22 54  1  0  0  0  0
 22 55  1  0  0  0  0
 23 27  1  0  0  0  0
 24 31  2  0  0  0  0
 24 56  1  0  0  0  0
 25 57  1  0  0  0  0
 26 29  2  0  0  0  0
 26 30  1  0  0  0  0
 27 58  1  0  0  0  0
 27 59  1  0  0  0  0
 27 60  1  0  0  0  0
 28 32  1  0  0  0  0
 29 33  1  0  0  0  0
 29 61  1  0  0  0  0
 30 34  2  0  0  0  0
 30 62  1  0  0  0  0
 31 63  1  0  0  0  0
 31 64  1  0  0  0  0
 32 65  1  0  0  0  0
 32 66  1  0  0  0  0
 33 35  2  0  0  0  0
 33 67  1  0  0  0  0
 34 35  1  0  0  0  0
 34 68  1  0  0  0  0
 35 69  1  0  0  0  0
M  END
> <PUBCHEM_COMPOUND_CID>
101744238

> <PUBCHEM_CONFORMER_RMSD>
1.2

> <PUBCHEM_CONFORMER_DIVERSEORDER>
30
174
177
8
185
116
76
164
186
129
122
45
147
163
195
159
72
118
27
128
5
13
138
51
87
50
196
151
35
148
187
80
139
143
99
176
192
173
3
102
55
184
75
22
158
79
65
191
124
127
190
63
114
101
153
93
6
60
58
194
25
183
23
131
98
37
113
59
21
181
62
66
112
145
7
160
111
110
64
178
172
81
142
120
84
157
57
106
152
154
97
144
146
36
92
77
182
162
74
96
133
132
33
119
26
18
123
56
167
48
180
17
85
67
46
69
1
88
86
43
15
188
149
83
40
39
91
31
103
19
107
171
109
135
41
179
125
54
121
78
166
24
189
115
140
161
100
104
90
61
11
170
42
130
16
14
53
155
156
89
175
94
117
137
150
38
168
20
105
2
95
169
12
136
29
32
165
44
52
71
108
193
28
34
73
141
82
49
47
10
134
68
9
70
4
126

> <PUBCHEM_MMFF94_PARTIAL_CHARGES>
44
1 -0.29
10 0.28
11 0.14
12 0.14
14 -0.28
16 0.56
17 0.28
18 -0.3
19 0.46
2 -0.56
20 0.14
21 0.05
22 0.42
23 0.66
24 -0.29
25 -0.01
26 -0.14
27 0.06
28 0.3
29 -0.15
3 -0.56
30 -0.15
31 -0.3
32 0.47
33 -0.15
34 -0.15
35 -0.15
4 -0.43
49 0.15
5 -0.56
50 0.15
56 0.15
57 0.15
6 -0.28
61 0.15
62 0.15
63 0.15
64 0.15
67 0.15
68 0.15
69 0.15
7 -0.57
8 -0.57
9 0.28

> <PUBCHEM_EFFECTIVE_ROTOR_COUNT>
16

> <PUBCHEM_PHARMACOPHORE_FEATURES>
8
1 2 acceptor
1 3 acceptor
1 31 hydrophobe
1 5 acceptor
1 7 acceptor
5 6 8 21 25 28 rings
6 2 9 10 11 12 14 rings
6 26 29 30 33 34 35 rings

> <PUBCHEM_HEAVY_ATOM_COUNT>
35

> <PUBCHEM_ATOM_DEF_STEREO_COUNT>
3

> <PUBCHEM_ATOM_UDEF_STEREO_COUNT>
1

> <PUBCHEM_BOND_DEF_STEREO_COUNT>
0

> <PUBCHEM_BOND_UDEF_STEREO_COUNT>
0

> <PUBCHEM_ISOTOPIC_ATOM_COUNT>
0

> <PUBCHEM_COMPONENT_COUNT>
1

> <PUBCHEM_CACTVS_TAUTO_COUNT>
4

> <PUBCHEM_CONFORMER_ID>
06107E6E0000001E

> <PUBCHEM_MMFF94_ENERGY>
58.0868

> <PUBCHEM_FEATURE_SELFOVERLAP>
40.598

> <PUBCHEM_SHAPE_FINGERPRINT>
10190108 129 18340203111946914331
10290309 65 18339378404468405186
11135609 187 18339082579990147529
11479125 193 18044357354140236237
14931854 50 18060141990286958192
15685185 35 18336265742467813476
19319366 153 18270674243189636787
23522609 53 17556583146084480657
508706 21 18199459056016859416
57527293 21 17985547737973327933
7288768 16 18113904853172932530

> <PUBCHEM_SHAPE_MULTIPOLES>
681.96
16.96
6.41
2.49
27.46
10.84
0.62
-23.32
6.98
-3.95
-2.06
-0.99
-1.05
-0.3

> <PUBCHEM_SHAPE_SELFOVERLAP>
1396.435

> <PUBCHEM_SHAPE_VOLUME>
392.3

> <PUBCHEM_COORDINATE_TYPE>
2
5
10

$$$$
