101297601
  -OEChem-02172602533D

 54 59  0     1  0  0  0  0  0999 V2000
   -1.1922   -0.3156   -2.3237 O   0  0  0  0  0  0  0  0  0  0  0  0
    1.6643   -3.0604   -0.6852 O   0  0  0  0  0  0  0  0  0  0  0  0
   -1.7040    0.0631    1.1464 N   0  0  1  0  0  0  0  0  0  0  0  0
   -0.5988   -0.1416    0.1298 C   0  0  1  0  0  0  0  0  0  0  0  0
   -1.2036    0.5072   -1.1849 C   0  0  2  0  0  0  0  0  0  0  0  0
    0.5189    0.8720    0.5847 C   0  0  2  0  0  0  0  0  0  0  0  0
   -0.0570    2.1948    0.0378 C   0  0  1  0  0  0  0  0  0  0  0  0
   -2.6259    0.9588   -0.7796 C   0  0  2  0  0  0  0  0  0  0  0  0
   -2.3585    1.3211    0.6826 C   0  0  2  0  0  0  0  0  0  0  0  0
   -0.3992    1.8023   -1.4029 C   0  0  0  0  0  0  0  0  0  0  0  0
   -1.3655    2.5031    0.7970 C   0  0  0  0  0  0  0  0  0  0  0  0
    1.9647    0.6183    0.0705 C   0  0  2  0  0  0  0  0  0  0  0  0
   -0.0403   -1.5633    0.0227 C   0  0  0  0  0  0  0  0  0  0  0  0
   -2.7612   -0.9740    1.2654 C   0  0  1  0  0  0  0  0  0  0  0  0
    2.3567   -0.8669    0.1095 C   0  0  1  0  0  0  0  0  0  0  0  0
   -3.7154   -0.1142   -0.9030 C   0  0  0  0  0  0  0  0  0  0  0  0
    1.3155   -1.6773   -0.6703 C   0  0  1  0  0  0  0  0  0  0  0  0
   -3.4179   -1.3528   -0.0682 C   0  0  0  0  0  0  0  0  0  0  0  0
    2.9850    1.4595    0.8630 C   0  0  0  0  0  0  0  0  0  0  0  0
    3.7835   -1.0665   -0.4312 C   0  0  0  0  0  0  0  0  0  0  0  0
   -2.3520   -2.2102    2.0698 C   0  0  0  0  0  0  0  0  0  0  0  0
    4.4054    1.2573    0.3406 C   0  0  0  0  0  0  0  0  0  0  0  0
    4.7973   -0.2148    0.3293 C   0  0  0  0  0  0  0  0  0  0  0  0
    0.5691    0.8949    1.6833 H   0  0  0  0  0  0  0  0  0  0  0  0
    0.6352    3.0385    0.0890 H   0  0  0  0  0  0  0  0  0  0  0  0
   -2.9587    1.8288   -1.3589 H   0  0  0  0  0  0  0  0  0  0  0  0
   -3.2699    1.5627    1.2415 H   0  0  0  0  0  0  0  0  0  0  0  0
   -0.9728    2.5808   -1.9192 H   0  0  0  0  0  0  0  0  0  0  0  0
    0.4786    1.6225   -2.0297 H   0  0  0  0  0  0  0  0  0  0  0  0
   -1.1434    2.7013    1.8528 H   0  0  0  0  0  0  0  0  0  0  0  0
   -1.8259    3.4085    0.3835 H   0  0  0  0  0  0  0  0  0  0  0  0
    2.0504    0.9376   -0.9738 H   0  0  0  0  0  0  0  0  0  0  0  0
   -0.7393   -2.2349   -0.4819 H   0  0  0  0  0  0  0  0  0  0  0  0
    0.0928   -1.9737    1.0321 H   0  0  0  0  0  0  0  0  0  0  0  0
   -3.5500   -0.5219    1.8857 H   0  0  0  0  0  0  0  0  0  0  0  0
    2.3619   -1.2147    1.1530 H   0  0  0  0  0  0  0  0  0  0  0  0
   -3.8640   -0.3978   -1.9511 H   0  0  0  0  0  0  0  0  0  0  0  0
   -4.6649    0.3182   -0.5615 H   0  0  0  0  0  0  0  0  0  0  0  0
    1.2599   -1.3375   -1.7105 H   0  0  0  0  0  0  0  0  0  0  0  0
   -4.3511   -1.8998    0.1147 H   0  0  0  0  0  0  0  0  0  0  0  0
   -2.7873   -2.0323   -0.6473 H   0  0  0  0  0  0  0  0  0  0  0  0
    2.9482    1.1863    1.9253 H   0  0  0  0  0  0  0  0  0  0  0  0
    2.7373    2.5245    0.8005 H   0  0  0  0  0  0  0  0  0  0  0  0
   -1.5774    0.1893   -3.0600 H   0  0  0  0  0  0  0  0  0  0  0  0
    3.8170   -0.8073   -1.4971 H   0  0  0  0  0  0  0  0  0  0  0  0
    4.0759   -2.1200   -0.3514 H   0  0  0  0  0  0  0  0  0  0  0  0
   -1.7538   -1.9331    2.9444 H   0  0  0  0  0  0  0  0  0  0  0  0
   -1.7961   -2.9418    1.4797 H   0  0  0  0  0  0  0  0  0  0  0  0
   -3.2467   -2.7248    2.4399 H   0  0  0  0  0  0  0  0  0  0  0  0
    5.1102    1.8216    0.9616 H   0  0  0  0  0  0  0  0  0  0  0  0
    4.4808    1.6628   -0.6759 H   0  0  0  0  0  0  0  0  0  0  0  0
    5.7884   -0.3293   -0.1240 H   0  0  0  0  0  0  0  0  0  0  0  0
    4.8751   -0.5785    1.3614 H   0  0  0  0  0  0  0  0  0  0  0  0
    0.9995   -3.5260   -1.2208 H   0  0  0  0  0  0  0  0  0  0  0  0
  1  5  1  0  0  0  0
  1 44  1  0  0  0  0
  2 17  1  0  0  0  0
  2 54  1  0  0  0  0
  3  4  1  0  0  0  0
  3  9  1  0  0  0  0
  3 14  1  0  0  0  0
  4  5  1  0  0  0  0
  4  6  1  0  0  0  0
  4 13  1  0  0  0  0
  5  8  1  0  0  0  0
  5 10  1  0  0  0  0
  6  7  1  0  0  0  0
  6 12  1  0  0  0  0
  6 24  1  0  0  0  0
  7 10  1  0  0  0  0
  7 11  1  0  0  0  0
  7 25  1  0  0  0  0
  8  9  1  0  0  0  0
  8 16  1  0  0  0  0
  8 26  1  0  0  0  0
  9 11  1  0  0  0  0
  9 27  1  0  0  0  0
 10 28  1  0  0  0  0
 10 29  1  0  0  0  0
 11 30  1  0  0  0  0
 11 31  1  0  0  0  0
 12 15  1  0  0  0  0
 12 19  1  0  0  0  0
 12 32  1  0  0  0  0
 13 17  1  0  0  0  0
 13 33  1  0  0  0  0
 13 34  1  0  0  0  0
 14 18  1  0  0  0  0
 14 21  1  0  0  0  0
 14 35  1  0  0  0  0
 15 17  1  0  0  0  0
 15 20  1  0  0  0  0
 15 36  1  0  0  0  0
 16 18  1  0  0  0  0
 16 37  1  0  0  0  0
 16 38  1  0  0  0  0
 17 39  1  0  0  0  0
 18 40  1  0  0  0  0
 18 41  1  0  0  0  0
 19 22  1  0  0  0  0
 19 42  1  0  0  0  0
 19 43  1  0  0  0  0
 20 23  1  0  0  0  0
 20 45  1  0  0  0  0
 20 46  1  0  0  0  0
 21 47  1  0  0  0  0
 21 48  1  0  0  0  0
 21 49  1  0  0  0  0
 22 23  1  0  0  0  0
 22 50  1  0  0  0  0
 22 51  1  0  0  0  0
 23 52  1  0  0  0  0
 23 53  1  0  0  0  0
M  END
> <PUBCHEM_COMPOUND_CID>
101297601

> <PUBCHEM_CONFORMER_RMSD>
0.6

> <PUBCHEM_CONFORMER_DIVERSEORDER>
1
2

> <PUBCHEM_MMFF94_PARTIAL_CHARGES>
10
1 -0.68
14 0.27
17 0.28
2 -0.68
3 -0.81
4 0.27
44 0.4
5 0.28
54 0.4
9 0.27

> <PUBCHEM_EFFECTIVE_ROTOR_COUNT>
2.2

> <PUBCHEM_PHARMACOPHORE_FEATURES>
9
1 1 acceptor
1 1 donor
1 2 acceptor
1 2 donor
1 3 cation
6 12 15 19 20 22 23 rings
6 4 6 12 13 15 17 rings
8 3 4 5 8 9 14 16 18 rings
9 3 4 5 6 7 8 9 10 11 rings

> <PUBCHEM_HEAVY_ATOM_COUNT>
23

> <PUBCHEM_ATOM_DEF_STEREO_COUNT>
10

> <PUBCHEM_ATOM_UDEF_STEREO_COUNT>
0

> <PUBCHEM_BOND_DEF_STEREO_COUNT>
0

> <PUBCHEM_BOND_UDEF_STEREO_COUNT>
0

> <PUBCHEM_ISOTOPIC_ATOM_COUNT>
0

> <PUBCHEM_COMPONENT_COUNT>
1

> <PUBCHEM_CACTVS_TAUTO_COUNT>
1

> <PUBCHEM_CONFORMER_ID>
0609ADC100000001

> <PUBCHEM_MMFF94_ENERGY>
84.1007

> <PUBCHEM_FEATURE_SELFOVERLAP>
46.42

> <PUBCHEM_SHAPE_FINGERPRINT>
10366900 7 18410857633782631170
10863032 1 18271803459095945069
10906281 52 18335434473428294245
10948715 1 17984141461831561145
11578080 2 17171234010886873646
12011746 2 18408882966543874895
12035758 1 18113904905176393833
12236239 1 16988843908019510363
12403814 3 17632572755982930157
12596599 1 17274830185344948230
12633257 1 18192151490942124522
13024252 1 12396304729460299981
13027679 85 18340205288661792457
13140716 1 17978519963436175579
13214271 11 18411698777062421412
13224815 77 18341892987539165440
13544653 18 18264213667636466203
14223421 5 18340210670123789614
14787075 74 18268143347673634943
15209289 33 18059855099556167632
15309172 13 18272369802036425034
16945 1 18342185504681829665
17349148 13 18261384551187696156
17357779 13 18117548742298017591
19591789 44 18343020008480367494
19930381 70 18271800289315336792
200 152 18131060546049073301
20600515 1 17458354064767329711
21452121 199 16665450209709415139
21452121 71 15937544847092945747
21501502 16 18125154940083713232
21682296 61 17986959544963015470
23419403 2 17826223279520966141
23493267 7 17968083205839211632
23557571 272 18113905948252137350
23559900 14 18041274388366136178
2748010 2 18338799017457986818
3380486 145 18193006035016178955
4340502 62 18187929405273470609
5104073 3 18341891853894712072
568465 68 18267873963203955641
5845 1 17531545173752426277
81228 2 18115885000700222705
90525 40 17274251747596909340
9709674 26 18340209562091039366

> <PUBCHEM_SHAPE_MULTIPOLES>
456.61
6.79
2.58
1.46
5.92
0.4
0.13
0.89
-0.76
-0.17
-0.29
-1.05
0.24
1.05

> <PUBCHEM_SHAPE_SELFOVERLAP>
1014.314

> <PUBCHEM_SHAPE_VOLUME>
244.6

> <PUBCHEM_COORDINATE_TYPE>
2
5
10

$$$$
