5367683
  -OEChem-02172602483D

 26 26  0     0  0  0  0  0  0999 V2000
    0.9849   -0.6998   -0.2047 C   0  0  0  0  0  0  0  0  0  0  0  0
    1.1798    0.6320   -0.0373 C   0  0  0  0  0  0  0  0  0  0  0  0
   -0.1946   -1.3065   -0.9377 C   0  0  0  0  0  0  0  0  0  0  0  0
    0.2205    1.7591   -0.4085 C   0  0  0  0  0  0  0  0  0  0  0  0
   -1.3904   -1.6265   -0.0331 C   0  0  0  0  0  0  0  0  0  0  0  0
   -1.2789    1.5038   -0.5896 C   0  0  0  0  0  0  0  0  0  0  0  0
   -2.0003   -0.5116    0.7699 C   0  0  0  0  0  0  0  0  0  0  0  0
   -1.9262    0.8116    0.5685 C   0  0  0  0  0  0  0  0  0  0  0  0
    1.9498   -1.7474    0.3052 C   0  0  0  0  0  0  0  0  0  0  0  0
    2.4554    1.1853    0.5674 C   0  0  0  0  0  0  0  0  0  0  0  0
   -0.4830   -0.6964   -1.7969 H   0  0  0  0  0  0  0  0  0  0  0  0
    0.1328   -2.2460   -1.4058 H   0  0  0  0  0  0  0  0  0  0  0  0
    0.3027    2.5246    0.3775 H   0  0  0  0  0  0  0  0  0  0  0  0
    0.5994    2.2318   -1.3243 H   0  0  0  0  0  0  0  0  0  0  0  0
   -1.0773   -2.4014    0.6793 H   0  0  0  0  0  0  0  0  0  0  0  0
   -2.1827   -2.0812   -0.6404 H   0  0  0  0  0  0  0  0  0  0  0  0
   -1.4976    0.9947   -1.5319 H   0  0  0  0  0  0  0  0  0  0  0  0
   -1.7732    2.4784   -0.7051 H   0  0  0  0  0  0  0  0  0  0  0  0
   -2.5596   -0.8406    1.6449 H   0  0  0  0  0  0  0  0  0  0  0  0
   -2.4166    1.4584    1.2936 H   0  0  0  0  0  0  0  0  0  0  0  0
    2.5865   -2.1027   -0.5111 H   0  0  0  0  0  0  0  0  0  0  0  0
    1.4032   -2.6060    0.7109 H   0  0  0  0  0  0  0  0  0  0  0  0
    2.5851   -1.3912    1.1201 H   0  0  0  0  0  0  0  0  0  0  0  0
    2.7677    2.0889    0.0311 H   0  0  0  0  0  0  0  0  0  0  0  0
    3.3022    0.4975    0.5033 H   0  0  0  0  0  0  0  0  0  0  0  0
    2.2916    1.4487    1.6170 H   0  0  0  0  0  0  0  0  0  0  0  0
  1  2  2  0  0  0  0
  1  3  1  0  0  0  0
  1  9  1  0  0  0  0
  2  4  1  0  0  0  0
  2 10  1  0  0  0  0
  3  5  1  0  0  0  0
  3 11  1  0  0  0  0
  3 12  1  0  0  0  0
  4  6  1  0  0  0  0
  4 13  1  0  0  0  0
  4 14  1  0  0  0  0
  5  7  1  0  0  0  0
  5 15  1  0  0  0  0
  5 16  1  0  0  0  0
  6  8  1  0  0  0  0
  6 17  1  0  0  0  0
  6 18  1  0  0  0  0
  7  8  2  0  0  0  0
  7 19  1  0  0  0  0
  8 20  1  0  0  0  0
  9 21  1  0  0  0  0
  9 22  1  0  0  0  0
  9 23  1  0  0  0  0
 10 24  1  0  0  0  0
 10 25  1  0  0  0  0
 10 26  1  0  0  0  0
M  END
> <PUBCHEM_COMPOUND_CID>
5367683

> <PUBCHEM_CONFORMER_RMSD>
0.4

> <PUBCHEM_CONFORMER_DIVERSEORDER>
1

> <PUBCHEM_MMFF94_PARTIAL_CHARGES>
12
1 -0.28
10 0.14
19 0.15
2 -0.28
20 0.15
3 0.14
4 0.14
5 0.14
6 0.14
7 -0.29
8 -0.29
9 0.14

> <PUBCHEM_EFFECTIVE_ROTOR_COUNT>
0.8

> <PUBCHEM_PHARMACOPHORE_FEATURES>
0

> <PUBCHEM_HEAVY_ATOM_COUNT>
10

> <PUBCHEM_ATOM_DEF_STEREO_COUNT>
0

> <PUBCHEM_ATOM_UDEF_STEREO_COUNT>
0

> <PUBCHEM_BOND_DEF_STEREO_COUNT>
2

> <PUBCHEM_BOND_UDEF_STEREO_COUNT>
0

> <PUBCHEM_ISOTOPIC_ATOM_COUNT>
0

> <PUBCHEM_COMPONENT_COUNT>
1

> <PUBCHEM_CACTVS_TAUTO_COUNT>
1

> <PUBCHEM_CONFORMER_ID>
0051E78300000001

> <PUBCHEM_MMFF94_ENERGY>
18.2344

> <PUBCHEM_FEATURE_SELFOVERLAP>
0

> <PUBCHEM_SHAPE_FINGERPRINT>
12423570 1 8323368984472603713
15775835 57 18129108990018761368
161256 15 18411710876238417486
16945 1 18264776621763424809
18185500 45 17836647800613600759
20511035 2 18337112241803345381
21040471 1 18412834585374439365
21922407 69 16009336243426739661
23552423 10 18261401082416728230
241688 4 18335706009460071211
2748010 2 18337393734065348765
5084963 1 17912660282089225650
54338 74 17546986985588015072
66348 1 18266182725231137449

> <PUBCHEM_SHAPE_MULTIPOLES>
205.8
2.97
2.21
0.89
0.49
0.1
0.03
-0.1
-0.84
0.23
0.21
-0.14
0.02
0.13

> <PUBCHEM_SHAPE_SELFOVERLAP>
399.527

> <PUBCHEM_SHAPE_VOLUME>
122.5

> <PUBCHEM_COORDINATE_TYPE>
2
5
10

$$$$
