129696417
  -OEChem-02172602493D

 54 57  0     0  0  0  0  0  0999 V2000
    2.2991    0.0634    1.3957 S   0  0  0  0  0  0  0  0  0  0  0  0
   -2.3520    3.3994   -0.1437 O   0  0  0  0  0  0  0  0  0  0  0  0
   -2.8197   -3.1742   -0.1366 O   0  0  0  0  0  0  0  0  0  0  0  0
    0.4159    0.0018   -0.4797 N   0  0  0  0  0  0  0  0  0  0  0  0
    2.6830   -0.0212   -1.1533 N   0  0  0  0  0  0  0  0  0  0  0  0
   -2.4577   -0.0082   -0.7445 C   0  0  0  0  0  0  0  0  0  0  0  0
   -1.6225    1.2618   -0.7808 C   0  0  0  0  0  0  0  0  0  0  0  0
   -1.6119   -1.2709   -0.7891 C   0  0  0  0  0  0  0  0  0  0  0  0
   -0.2737    1.2387   -0.6520 C   0  0  0  0  0  0  0  0  0  0  0  0
   -0.2680   -1.2426   -0.6133 C   0  0  0  0  0  0  0  0  0  0  0  0
   -3.3318   -0.0178    0.4778 C   0  0  0  0  0  0  0  0  0  0  0  0
    1.7555    0.0100   -0.2252 C   0  0  0  0  0  0  0  0  0  0  0  0
   -2.3974    2.5026   -0.9804 C   0  0  0  0  0  0  0  0  0  0  0  0
   -2.3657   -2.5102   -1.0636 C   0  0  0  0  0  0  0  0  0  0  0  0
    0.5843    2.4912   -0.7041 C   0  0  0  0  0  0  0  0  0  0  0  0
    0.5852   -2.4982   -0.5663 C   0  0  0  0  0  0  0  0  0  0  0  0
   -2.8637   -0.5794    1.6658 C   0  0  0  0  0  0  0  0  0  0  0  0
   -4.6113    0.5348    0.4243 C   0  0  0  0  0  0  0  0  0  0  0  0
   -3.2197    2.6181   -2.2328 C   0  0  0  0  0  0  0  0  0  0  0  0
   -2.5551   -2.9083   -2.5002 C   0  0  0  0  0  0  0  0  0  0  0  0
    3.9307    0.0447    0.8387 C   0  0  0  0  0  0  0  0  0  0  0  0
    3.9362   -0.0015   -0.5586 C   0  0  0  0  0  0  0  0  0  0  0  0
   -3.6753   -0.5885    2.8003 C   0  0  0  0  0  0  0  0  0  0  0  0
   -5.4229    0.5258    1.5586 C   0  0  0  0  0  0  0  0  0  0  0  0
   -4.9549   -0.0358    2.7466 C   0  0  0  0  0  0  0  0  0  0  0  0
    5.1202    0.0693    1.5847 C   0  0  0  0  0  0  0  0  0  0  0  0
    5.1775   -0.0237   -1.2308 C   0  0  0  0  0  0  0  0  0  0  0  0
    6.3348    0.0465    0.8950 C   0  0  0  0  0  0  0  0  0  0  0  0
    6.3655    0.0007   -0.4945 C   0  0  0  0  0  0  0  0  0  0  0  0
    7.6153    0.0718    1.6619 C   0  0  0  0  0  0  0  0  0  0  0  0
   -3.0910   -0.0372   -1.6419 H   0  0  0  0  0  0  0  0  0  0  0  0
    1.3910    2.3859   -1.4373 H   0  0  0  0  0  0  0  0  0  0  0  0
    0.0236    3.3773   -1.0142 H   0  0  0  0  0  0  0  0  0  0  0  0
    1.0141    2.7106    0.2782 H   0  0  0  0  0  0  0  0  0  0  0  0
    1.0647   -2.6116    0.4109 H   0  0  0  0  0  0  0  0  0  0  0  0
    0.0005   -3.4085   -0.7301 H   0  0  0  0  0  0  0  0  0  0  0  0
    1.3521   -2.4790   -1.3477 H   0  0  0  0  0  0  0  0  0  0  0  0
   -1.8657   -0.9954    1.7629 H   0  0  0  0  0  0  0  0  0  0  0  0
   -5.0024    0.9582   -0.4951 H   0  0  0  0  0  0  0  0  0  0  0  0
   -4.2819    2.5491   -1.9921 H   0  0  0  0  0  0  0  0  0  0  0  0
   -2.9574    1.8446   -2.9594 H   0  0  0  0  0  0  0  0  0  0  0  0
   -3.0139    3.5868   -2.6981 H   0  0  0  0  0  0  0  0  0  0  0  0
   -2.1267   -3.9015   -2.6581 H   0  0  0  0  0  0  0  0  0  0  0  0
   -2.0563   -2.2042   -3.1724 H   0  0  0  0  0  0  0  0  0  0  0  0
   -3.6229   -2.9161   -2.7334 H   0  0  0  0  0  0  0  0  0  0  0  0
   -3.3091   -1.0201    3.7272 H   0  0  0  0  0  0  0  0  0  0  0  0
   -6.4208    0.9522    1.5159 H   0  0  0  0  0  0  0  0  0  0  0  0
   -5.5867   -0.0423    3.6300 H   0  0  0  0  0  0  0  0  0  0  0  0
    5.0920    0.1070    2.6700 H   0  0  0  0  0  0  0  0  0  0  0  0
    5.2129   -0.0591   -2.3160 H   0  0  0  0  0  0  0  0  0  0  0  0
    7.3138   -0.0149   -1.0262 H   0  0  0  0  0  0  0  0  0  0  0  0
    7.9438    1.1053    1.8098 H   0  0  0  0  0  0  0  0  0  0  0  0
    7.4992   -0.4030    2.6421 H   0  0  0  0  0  0  0  0  0  0  0  0
    8.4035   -0.4754    1.1333 H   0  0  0  0  0  0  0  0  0  0  0  0
  1 12  1  0  0  0  0
  1 21  1  0  0  0  0
  2 13  2  0  0  0  0
  3 14  2  0  0  0  0
  4  9  1  0  0  0  0
  4 10  1  0  0  0  0
  4 12  1  0  0  0  0
  5 12  2  0  0  0  0
  5 22  1  0  0  0  0
  6  7  1  0  0  0  0
  6  8  1  0  0  0  0
  6 11  1  0  0  0  0
  6 31  1  0  0  0  0
  7  9  2  0  0  0  0
  7 13  1  0  0  0  0
  8 10  2  0  0  0  0
  8 14  1  0  0  0  0
  9 15  1  0  0  0  0
 10 16  1  0  0  0  0
 11 17  2  0  0  0  0
 11 18  1  0  0  0  0
 13 19  1  0  0  0  0
 14 20  1  0  0  0  0
 15 32  1  0  0  0  0
 15 33  1  0  0  0  0
 15 34  1  0  0  0  0
 16 35  1  0  0  0  0
 16 36  1  0  0  0  0
 16 37  1  0  0  0  0
 17 23  1  0  0  0  0
 17 38  1  0  0  0  0
 18 24  2  0  0  0  0
 18 39  1  0  0  0  0
 19 40  1  0  0  0  0
 19 41  1  0  0  0  0
 19 42  1  0  0  0  0
 20 43  1  0  0  0  0
 20 44  1  0  0  0  0
 20 45  1  0  0  0  0
 21 22  2  0  0  0  0
 21 26  1  0  0  0  0
 22 27  1  0  0  0  0
 23 25  2  0  0  0  0
 23 46  1  0  0  0  0
 24 25  1  0  0  0  0
 24 47  1  0  0  0  0
 25 48  1  0  0  0  0
 26 28  2  0  0  0  0
 26 49  1  0  0  0  0
 27 29  2  0  0  0  0
 27 50  1  0  0  0  0
 28 29  1  0  0  0  0
 28 30  1  0  0  0  0
 29 51  1  0  0  0  0
 30 52  1  0  0  0  0
 30 53  1  0  0  0  0
 30 54  1  0  0  0  0
M  END
> <PUBCHEM_COMPOUND_CID>
129696417

> <PUBCHEM_CONFORMER_RMSD>
0.8

> <PUBCHEM_CONFORMER_DIVERSEORDER>
1
4
8
5
2
3
6
7

> <PUBCHEM_MMFF94_PARTIAL_CHARGES>
38
1 -0.08
10 -0.04
11 -0.14
12 0.46
13 0.49
14 0.49
15 0.14
16 0.14
17 -0.15
18 -0.15
19 0.06
2 -0.57
20 0.06
21 0.04
22 0.23
23 -0.15
24 -0.15
25 -0.15
26 -0.15
27 -0.15
28 -0.14
29 -0.15
3 -0.57
30 0.14
38 0.15
39 0.15
4 -0.28
46 0.15
47 0.15
48 0.15
49 0.15
5 -0.57
50 0.15
51 0.15
6 0.42
7 -0.12
8 -0.12
9 -0.04

> <PUBCHEM_EFFECTIVE_ROTOR_COUNT>
4.4

> <PUBCHEM_PHARMACOPHORE_FEATURES>
7
1 2 acceptor
1 3 acceptor
3 4 5 12 cation
5 1 5 12 21 22 rings
6 11 17 18 23 24 25 rings
6 21 22 26 27 28 29 rings
6 4 6 7 8 9 10 rings

> <PUBCHEM_HEAVY_ATOM_COUNT>
30

> <PUBCHEM_ATOM_DEF_STEREO_COUNT>
0

> <PUBCHEM_ATOM_UDEF_STEREO_COUNT>
0

> <PUBCHEM_BOND_DEF_STEREO_COUNT>
0

> <PUBCHEM_BOND_UDEF_STEREO_COUNT>
0

> <PUBCHEM_ISOTOPIC_ATOM_COUNT>
0

> <PUBCHEM_COMPONENT_COUNT>
1

> <PUBCHEM_CACTVS_TAUTO_COUNT>
180

> <PUBCHEM_CONFORMER_ID>
07BB02A100000001

> <PUBCHEM_MMFF94_ENERGY>
98.4717

> <PUBCHEM_FEATURE_SELFOVERLAP>
35.594

> <PUBCHEM_SHAPE_FINGERPRINT>
10 15 18335421279605304712
10165383 225 18060147509350867539
10906281 52 18117563921192801885
11370993 144 17203335498563846046
11552529 35 17273968219678935990
117089 54 13336743524814577649
11720765 8 15688950903367221903
12107698 1 17967536791388826697
12236239 1 17458341919253762364
12422481 6 18339376204922156455
12596602 18 16950287317074080632
12616971 3 18187366571336576342
12633257 1 18202285839849805888
13140716 1 18266746964070360613
13540713 4 18047762494490609719
13540713 5 18052545657744716301
13583140 156 17603856784914514700
14856354 85 17749404683801685195
14955137 171 18262254273602127148
15183329 4 13542467544807405656
15537594 2 18334575742067750562
16114785 44 17773876402917723201
18927931 339 18186517709436526838
20775438 99 11391490937550998297
21033648 29 18129951061439125697
22182313 1 18194132819390339967
23559900 14 18200031734524679118
25147074 1 18124321755251819893
2748010 2 18122070793267883367
2838139 119 14979682044066754841
3380486 145 18411415099031245373
376196 1 17397247349166104501
392239 28 17531547437289719313
4073 2 17346599712264550430
469060 322 18336542806976957711
5080951 261 17916563428193591046
5104073 3 18270115863666591568
57527295 17 12108050177291191476
59755656 520 17561085782799685119
9896288 288 18042970878256029113
9981440 41 18120642544790906661

> <PUBCHEM_SHAPE_MULTIPOLES>
599.53
14.18
2.78
2.33
24.88
0.08
-0.94
-0.93
-7.95
-4.09
2.15
-2.46
0.32
0.2

> <PUBCHEM_SHAPE_SELFOVERLAP>
1301.505

> <PUBCHEM_SHAPE_VOLUME>
331

> <PUBCHEM_COORDINATE_TYPE>
2
5
10

$$$$
