161483
  -OEChem-02172602483D

 59 60  0     1  0  0  0  0  0999 V2000
    0.8800   -1.1129    0.1406 O   0  0  0  0  0  0  0  0  0  0  0  0
    2.7380    0.2707    0.4268 O   0  0  0  0  0  0  0  0  0  0  0  0
    3.2788   -4.4835    0.2466 O   0  0  0  0  0  0  0  0  0  0  0  0
    4.4309   -1.8889   -0.3069 O   0  0  0  0  0  0  0  0  0  0  0  0
    0.8971   -3.6647    1.4239 O   0  0  0  0  0  0  0  0  0  0  0  0
    3.4210    2.9293    1.3365 O   0  0  0  0  0  0  0  0  0  0  0  0
   -1.7590   -3.4467   -0.7041 O   0  0  0  0  0  0  0  0  0  0  0  0
    4.8916    1.7828   -0.6501 O   0  0  0  0  0  0  0  0  0  0  0  0
    0.8843    3.5374    2.3641 O   0  0  0  0  0  0  0  0  0  0  0  0
    2.3079    2.5183   -3.1231 O   0  0  0  0  0  0  0  0  0  0  0  0
   -3.2824   -0.0537    2.1170 O   0  0  0  0  0  0  0  0  0  0  0  0
   -1.1188    1.4398    1.3598 N   0  0  0  0  0  0  0  0  0  0  0  0
   -2.2195    1.3143    0.5814 N   0  0  0  0  0  0  0  0  0  0  0  0
   -6.6084    0.2137   -1.5644 N   0  0  0  0  0  0  0  0  0  0  0  0
    2.5508   -3.3972   -0.3195 C   0  0  2  0  0  0  0  0  0  0  0  0
    3.1159   -2.0812    0.2141 C   0  0  2  0  0  0  0  0  0  0  0  0
    1.0639   -3.5308    0.0110 C   0  0  2  0  0  0  0  0  0  0  0  0
    2.2439   -0.9012   -0.2211 C   0  0  1  0  0  0  0  0  0  0  0  0
    0.3131   -2.2819   -0.4642 C   0  0  1  0  0  0  0  0  0  0  0  0
    2.5035    1.4380   -0.3678 C   0  0  1  0  0  0  0  0  0  0  0  0
    2.2515    2.6380    0.5725 C   0  0  1  0  0  0  0  0  0  0  0  0
   -1.1643   -2.3166   -0.0915 C   0  0  0  0  0  0  0  0  0  0  0  0
    3.6739    1.5786   -1.3626 C   0  0  1  0  0  0  0  0  0  0  0  0
    1.1114    2.3857    1.5678 C   0  0  2  0  0  0  0  0  0  0  0  0
    3.4974    2.7075   -2.3747 C   0  0  0  0  0  0  0  0  0  0  0  0
   -0.1834    2.1540    0.8273 C   0  0  0  0  0  0  0  0  0  0  0  0
   -3.2679    0.5398    1.0415 C   0  0  0  0  0  0  0  0  0  0  0  0
   -4.4359    0.4256    0.1301 C   0  0  0  0  0  0  0  0  0  0  0  0
   -5.2314   -0.6930    0.2038 C   0  0  0  0  0  0  0  0  0  0  0  0
   -4.6877    1.4422   -0.7603 C   0  0  0  0  0  0  0  0  0  0  0  0
   -6.3078   -0.7515   -0.6667 C   0  0  0  0  0  0  0  0  0  0  0  0
   -5.7884    1.2883   -1.5878 C   0  0  0  0  0  0  0  0  0  0  0  0
    2.6894   -3.4532   -1.4065 H   0  0  0  0  0  0  0  0  0  0  0  0
    3.2107   -2.1156    1.3057 H   0  0  0  0  0  0  0  0  0  0  0  0
    0.6594   -4.4399   -0.4475 H   0  0  0  0  0  0  0  0  0  0  0  0
    2.3055   -0.7956   -1.3122 H   0  0  0  0  0  0  0  0  0  0  0  0
    0.3997   -2.1993   -1.5559 H   0  0  0  0  0  0  0  0  0  0  0  0
    1.5829    1.2935   -0.9491 H   0  0  0  0  0  0  0  0  0  0  0  0
    2.0346    3.5332   -0.0221 H   0  0  0  0  0  0  0  0  0  0  0  0
   -1.6623   -1.4150   -0.4607 H   0  0  0  0  0  0  0  0  0  0  0  0
   -1.3162   -2.3590    0.9921 H   0  0  0  0  0  0  0  0  0  0  0  0
    3.7985    0.6437   -1.9194 H   0  0  0  0  0  0  0  0  0  0  0  0
    4.2171   -4.3506    0.0284 H   0  0  0  0  0  0  0  0  0  0  0  0
    4.3700   -1.8585   -1.2769 H   0  0  0  0  0  0  0  0  0  0  0  0
    1.3329    1.5527    2.2432 H   0  0  0  0  0  0  0  0  0  0  0  0
    1.4195   -4.4351    1.7056 H   0  0  0  0  0  0  0  0  0  0  0  0
    4.3484    2.7438   -3.0639 H   0  0  0  0  0  0  0  0  0  0  0  0
    3.4557    3.6844   -1.8827 H   0  0  0  0  0  0  0  0  0  0  0  0
    3.2193    3.6960    1.8999 H   0  0  0  0  0  0  0  0  0  0  0  0
   -2.7022   -3.4366   -0.4678 H   0  0  0  0  0  0  0  0  0  0  0  0
    4.9833    1.0514   -0.0156 H   0  0  0  0  0  0  0  0  0  0  0  0
   -0.3092    2.6638   -0.1460 H   0  0  0  0  0  0  0  0  0  0  0  0
    0.2289    3.3025    3.0433 H   0  0  0  0  0  0  0  0  0  0  0  0
    2.3737    1.6551   -3.5658 H   0  0  0  0  0  0  0  0  0  0  0  0
   -2.1967    1.7525   -0.3333 H   0  0  0  0  0  0  0  0  0  0  0  0
   -5.0439   -1.5059    0.8956 H   0  0  0  0  0  0  0  0  0  0  0  0
   -4.1042    2.3519   -0.8291 H   0  0  0  0  0  0  0  0  0  0  0  0
   -6.9774   -1.6053   -0.6656 H   0  0  0  0  0  0  0  0  0  0  0  0
   -6.0521    2.0541   -2.3100 H   0  0  0  0  0  0  0  0  0  0  0  0
  1 18  1  0  0  0  0
  1 19  1  0  0  0  0
  2 18  1  0  0  0  0
  2 20  1  0  0  0  0
  3 15  1  0  0  0  0
  3 43  1  0  0  0  0
  4 16  1  0  0  0  0
  4 44  1  0  0  0  0
  5 17  1  0  0  0  0
  5 46  1  0  0  0  0
  6 21  1  0  0  0  0
  6 49  1  0  0  0  0
  7 22  1  0  0  0  0
  7 50  1  0  0  0  0
  8 23  1  0  0  0  0
  8 51  1  0  0  0  0
  9 24  1  0  0  0  0
  9 53  1  0  0  0  0
 10 25  1  0  0  0  0
 10 54  1  0  0  0  0
 11 27  2  0  0  0  0
 12 13  1  0  0  0  0
 12 26  2  3  0  0  0
 13 27  1  0  0  0  0
 13 55  1  0  0  0  0
 14 31  2  0  0  0  0
 14 32  1  0  0  0  0
 15 16  1  0  0  0  0
 15 17  1  0  0  0  0
 15 33  1  0  0  0  0
 16 18  1  0  0  0  0
 16 34  1  0  0  0  0
 17 19  1  0  0  0  0
 17 35  1  0  0  0  0
 18 36  1  0  0  0  0
 19 22  1  0  0  0  0
 19 37  1  0  0  0  0
 20 21  1  0  0  0  0
 20 23  1  0  0  0  0
 20 38  1  0  0  0  0
 21 24  1  0  0  0  0
 21 39  1  0  0  0  0
 22 40  1  0  0  0  0
 22 41  1  0  0  0  0
 23 25  1  0  0  0  0
 23 42  1  0  0  0  0
 24 26  1  0  0  0  0
 24 45  1  0  0  0  0
 25 47  1  0  0  0  0
 25 48  1  0  0  0  0
 26 52  1  0  0  0  0
 27 28  1  0  0  0  0
 28 29  2  0  0  0  0
 28 30  1  0  0  0  0
 29 31  1  0  0  0  0
 29 56  1  0  0  0  0
 30 32  2  0  0  0  0
 30 57  1  0  0  0  0
 31 58  1  0  0  0  0
 32 59  1  0  0  0  0
M  END
> <PUBCHEM_COMPOUND_CID>
161483

> <PUBCHEM_CONFORMER_RMSD>
1.2

> <PUBCHEM_CONFORMER_DIVERSEORDER>
1
59
9
11
31
51
10
33
50
54
21
46
6
37
14
24
38
20
52
56
58
25
47
35
5
49
29
8
4
62
18
48
12
42
43
19
7
22
16
61
3
27
53
28
60
63
26
55
17
32
39
45
15
44
57
41
13
36
23
40
34
30
2

> <PUBCHEM_MMFF94_PARTIAL_CHARGES>
46
1 -0.56
10 -0.68
11 -0.57
12 -0.51
13 -0.37
14 -0.62
15 0.28
16 0.28
17 0.28
18 0.56
19 0.28
2 -0.56
20 0.28
21 0.28
22 0.28
23 0.28
24 0.34
25 0.28
26 0.33
27 0.54
28 0.09
29 -0.15
3 -0.68
30 -0.15
31 0.16
32 0.16
4 -0.68
43 0.4
44 0.4
46 0.4
49 0.4
5 -0.68
50 0.4
51 0.4
52 0.06
53 0.4
54 0.4
55 0.37
56 0.15
57 0.15
58 0.15
59 0.15
6 -0.68
7 -0.68
8 -0.68
9 -0.68

> <PUBCHEM_EFFECTIVE_ROTOR_COUNT>
12.2

> <PUBCHEM_PHARMACOPHORE_FEATURES>
24
1 1 acceptor
1 10 acceptor
1 10 donor
1 11 acceptor
1 12 acceptor
1 13 donor
1 14 acceptor
1 2 acceptor
1 3 acceptor
1 3 donor
1 4 acceptor
1 4 donor
1 5 acceptor
1 5 donor
1 6 acceptor
1 6 donor
1 7 acceptor
1 7 donor
1 8 acceptor
1 8 donor
1 9 acceptor
1 9 donor
6 1 15 16 17 18 19 rings
6 14 28 29 30 31 32 rings

> <PUBCHEM_HEAVY_ATOM_COUNT>
32

> <PUBCHEM_ATOM_DEF_STEREO_COUNT>
9

> <PUBCHEM_ATOM_UDEF_STEREO_COUNT>
0

> <PUBCHEM_BOND_DEF_STEREO_COUNT>
0

> <PUBCHEM_BOND_UDEF_STEREO_COUNT>
1

> <PUBCHEM_ISOTOPIC_ATOM_COUNT>
0

> <PUBCHEM_COMPONENT_COUNT>
1

> <PUBCHEM_CACTVS_TAUTO_COUNT>
2

> <PUBCHEM_CONFORMER_ID>
000276CB00000001

> <PUBCHEM_MMFF94_ENERGY>
87.0283

> <PUBCHEM_FEATURE_SELFOVERLAP>
121.923

> <PUBCHEM_SHAPE_FINGERPRINT>
10190108 129 17833569155841807419
1100329 8 18412547604962058762
11069576 57 18340491054073306054
11513181 2 17556031181886801414
12166972 35 18263364685893992695
13617811 41 18190172564061694269
14068700 675 18052533279569892962
14114211 68 18191328123999365343
14117953 113 17626099742700284351
14931854 50 18271818929425935340
15950262 2 16299242374295161420
16114785 44 15760998563588373016
18336668 15 18337671906623567784
18681886 176 18128241308200339971
19026451 147 18201710713806531507
19319366 153 18412262869672433182
20642791 105 18120096345357496458
23559900 14 18261668182644470121
3052486 1 18122628529020672320
3298306 158 18339077202732374553
46194498 28 17967813808621838941
463206 1 18343302548424052579
484989 97 18338527450802601218
513532 50 17346878966268226780
59682541 52 18197474309117710773
6669772 16 18057310893615581032
7471813 234 18127405644633323771

> <PUBCHEM_SHAPE_MULTIPOLES>
579.04
11.97
5.37
1.91
20.31
3.98
-0.5
-2.46
-5.49
-7.11
0.55
-0.41
-2.19
-0.71

> <PUBCHEM_SHAPE_SELFOVERLAP>
1194.082

> <PUBCHEM_SHAPE_VOLUME>
325.8

> <PUBCHEM_COORDINATE_TYPE>
2
5
10

$$$$
