5365518
  -OEChem-02172602483D

 50 54  0     0  0  0  0  0  0999 V2000
    7.3370   -1.1883    0.0149 O   0  0  0  0  0  0  0  0  0  0  0  0
   -7.3261    1.1981    0.0150 O   0  0  0  0  0  0  0  0  0  0  0  0
    2.4710   -1.3238   -0.0100 N   0  0  0  0  0  0  0  0  0  0  0  0
   -2.4846    1.3063   -0.0102 N   0  0  0  0  0  0  0  0  0  0  0  0
    6.1162    0.7210   -0.0203 N   0  0  0  0  0  0  0  0  0  0  0  0
   -6.1105   -0.7144   -0.0205 N   0  0  0  0  0  0  0  0  0  0  0  0
    5.0826   -3.9756    0.0267 N   0  0  0  0  0  0  0  0  0  0  0  0
   -5.0801    3.9689    0.0269 N   0  0  0  0  0  0  0  0  0  0  0  0
    1.2325   -0.6667   -0.0092 C   0  0  0  0  0  0  0  0  0  0  0  0
   -1.2390    0.6452   -0.0094 C   0  0  0  0  0  0  0  0  0  0  0  0
    8.2047   -0.1340    0.0117 C   0  0  0  0  0  0  0  0  0  0  0  0
   -8.1967    0.1460    0.0118 C   0  0  0  0  0  0  0  0  0  0  0  0
    7.4543    1.0323   -0.0101 C   0  0  0  0  0  0  0  0  0  0  0  0
   -7.4494   -1.0223   -0.0101 C   0  0  0  0  0  0  0  0  0  0  0  0
    6.1112   -0.5938   -0.0044 C   0  0  0  0  0  0  0  0  0  0  0  0
   -6.1176    0.5899   -0.0045 C   0  0  0  0  0  0  0  0  0  0  0  0
    0.0429   -1.4029   -0.0087 C   0  0  0  0  0  0  0  0  0  0  0  0
   -1.1892   -0.7488   -0.0090 C   0  0  0  0  0  0  0  0  0  0  0  0
    1.1755    0.7312   -0.0097 C   0  0  0  0  0  0  0  0  0  0  0  0
   -0.0566    1.3852   -0.0097 C   0  0  0  0  0  0  0  0  0  0  0  0
    4.9331   -1.3806   -0.0058 C   0  0  0  0  0  0  0  0  0  0  0  0
   -4.9217    1.3840   -0.0059 C   0  0  0  0  0  0  0  0  0  0  0  0
    9.5932   -0.1819    0.0267 C   0  0  0  0  0  0  0  0  0  0  0  0
   -9.5850    0.1976    0.0269 C   0  0  0  0  0  0  0  0  0  0  0  0
    8.1200    2.2665   -0.0180 C   0  0  0  0  0  0  0  0  0  0  0  0
   -8.1183   -2.2547   -0.0181 C   0  0  0  0  0  0  0  0  0  0  0  0
    3.7185   -0.7798   -0.0112 C   0  0  0  0  0  0  0  0  0  0  0  0
   -3.7244    0.7696   -0.0113 C   0  0  0  0  0  0  0  0  0  0  0  0
   10.2420    1.0576    0.0186 C   0  0  0  0  0  0  0  0  0  0  0  0
  -10.2370   -1.0401    0.0187 C   0  0  0  0  0  0  0  0  0  0  0  0
    9.5224    2.2586   -0.0033 C   0  0  0  0  0  0  0  0  0  0  0  0
   -9.5206   -2.2431   -0.0033 C   0  0  0  0  0  0  0  0  0  0  0  0
    5.0072   -2.8176    0.0123 C   0  0  0  0  0  0  0  0  0  0  0  0
   -5.0078    2.8107    0.0124 C   0  0  0  0  0  0  0  0  0  0  0  0
    0.0670   -2.4901   -0.0084 H   0  0  0  0  0  0  0  0  0  0  0  0
   -2.0689   -1.3818   -0.0082 H   0  0  0  0  0  0  0  0  0  0  0  0
    2.0542    1.3658   -0.0095 H   0  0  0  0  0  0  0  0  0  0  0  0
   -0.0821    2.4721   -0.0100 H   0  0  0  0  0  0  0  0  0  0  0  0
    2.4271   -2.3374   -0.0063 H   0  0  0  0  0  0  0  0  0  0  0  0
   -2.4333    2.3197   -0.0067 H   0  0  0  0  0  0  0  0  0  0  0  0
   10.1402   -1.1163    0.0435 H   0  0  0  0  0  0  0  0  0  0  0  0
  -10.1295    1.1333    0.0438 H   0  0  0  0  0  0  0  0  0  0  0  0
    7.5727    3.2031   -0.0349 H   0  0  0  0  0  0  0  0  0  0  0  0
   -7.5734   -3.1927   -0.0352 H   0  0  0  0  0  0  0  0  0  0  0  0
    3.7081    0.3025   -0.0197 H   0  0  0  0  0  0  0  0  0  0  0  0
   -3.7220   -0.3126   -0.0202 H   0  0  0  0  0  0  0  0  0  0  0  0
   11.3289    1.0885    0.0295 H   0  0  0  0  0  0  0  0  0  0  0  0
  -11.3240   -1.0684    0.0296 H   0  0  0  0  0  0  0  0  0  0  0  0
   10.0603    3.2034   -0.0091 H   0  0  0  0  0  0  0  0  0  0  0  0
  -10.0610   -3.1865   -0.0091 H   0  0  0  0  0  0  0  0  0  0  0  0
  1 11  1  0  0  0  0
  1 15  1  0  0  0  0
  2 12  1  0  0  0  0
  2 16  1  0  0  0  0
  3  9  1  0  0  0  0
  3 27  1  0  0  0  0
  3 39  1  0  0  0  0
  4 10  1  0  0  0  0
  4 28  1  0  0  0  0
  4 40  1  0  0  0  0
  5 13  1  0  0  0  0
  5 15  2  0  0  0  0
  6 14  1  0  0  0  0
  6 16  2  0  0  0  0
  7 33  3  0  0  0  0
  8 34  3  0  0  0  0
  9 17  2  0  0  0  0
  9 19  1  0  0  0  0
 10 18  2  0  0  0  0
 10 20  1  0  0  0  0
 11 13  1  0  0  0  0
 11 23  2  0  0  0  0
 12 14  1  0  0  0  0
 12 24  2  0  0  0  0
 13 25  2  0  0  0  0
 14 26  2  0  0  0  0
 15 21  1  0  0  0  0
 16 22  1  0  0  0  0
 17 18  1  0  0  0  0
 17 35  1  0  0  0  0
 18 36  1  0  0  0  0
 19 20  2  0  0  0  0
 19 37  1  0  0  0  0
 20 38  1  0  0  0  0
 21 27  2  0  0  0  0
 21 33  1  0  0  0  0
 22 28  2  0  0  0  0
 22 34  1  0  0  0  0
 23 29  1  0  0  0  0
 23 41  1  0  0  0  0
 24 30  1  0  0  0  0
 24 42  1  0  0  0  0
 25 31  1  0  0  0  0
 25 43  1  0  0  0  0
 26 32  1  0  0  0  0
 26 44  1  0  0  0  0
 27 45  1  0  0  0  0
 28 46  1  0  0  0  0
 29 31  2  0  0  0  0
 29 47  1  0  0  0  0
 30 32  2  0  0  0  0
 30 48  1  0  0  0  0
 31 49  1  0  0  0  0
 32 50  1  0  0  0  0
M  END
> <PUBCHEM_COMPOUND_CID>
5365518

> <PUBCHEM_CONFORMER_RMSD>
0.8

> <PUBCHEM_CONFORMER_DIVERSEORDER>
2
228
257
161
271
25
182
277
207
86
194
37
264
159
221
158
227
78
4
272
209
183
172
179
275
18
210
16
280
174
252
178
17
32
150
91
168
153
189
89
115
206
35
203
254
211
273
157
7
205
281
171
173
176
278
13
136
247
191
186
233
34
169
170
61
29
187
236
22
282
234
258
224
12
121
177
28
163
238
268
270
253
162
63
124
3
212
9
259
141
146
263
230
241
46
26
220
243
8
105
72
42
195
113
185
31
279
77
66
30
166
152
6
164
249
47
45
19
106
79
99
88
197
160
138
225
235
74
226
134
68
60
229
20
208
123
44
198
244
39
109
261
70
50
27
129
108
184
21
112
87
201
118
114
95
276
93
102
73
246
5
127
248
36
144
192
154
75
103
55
140
33
83
65
69
237
43
239
1
190
143
265
175
165
222
67
97
135
215
62
104
274
56
59
267
84
231
240
116
181
255
53
250
64
11
193
262
98
151
90
142
133
82
24
126
219
111
81
180
245
213
232
10
269
85
117
131
156
260
125
149
71
107
57
200
251
204
120
199
130
101
216
167
218
54
148
49
132
196
92
76
38
110
52
256
122
51
40
100
94
58
266
80
119
242
145
14
96
48
139
41
128
217
137
188
23
214
155
15
223
202
147

> <PUBCHEM_MMFF94_PARTIAL_CHARGES>
50
1 -0.28
10 0.1
11 0.14
12 0.14
13 0.23
14 0.23
15 0.43
16 0.43
17 -0.15
18 -0.15
19 -0.15
2 -0.28
20 -0.15
21 0.11
22 0.11
23 -0.15
24 -0.15
25 -0.15
26 -0.15
27 -0.05
28 -0.05
29 -0.15
3 -0.6
30 -0.15
31 -0.15
32 -0.15
33 0.49
34 0.49
35 0.15
36 0.15
37 0.15
38 0.15
39 0.4
4 -0.6
40 0.4
41 0.15
42 0.15
43 0.15
44 0.15
45 0.15
46 0.15
47 0.15
48 0.15
49 0.15
5 -0.57
50 0.15
6 -0.57
7 -0.56
8 -0.56
9 0.1

> <PUBCHEM_EFFECTIVE_ROTOR_COUNT>
6

> <PUBCHEM_PHARMACOPHORE_FEATURES>
11
1 3 cation
1 3 donor
1 4 cation
1 4 donor
1 7 acceptor
1 8 acceptor
5 1 5 11 13 15 rings
5 2 6 12 14 16 rings
6 11 13 23 25 29 31 rings
6 12 14 24 26 30 32 rings
6 9 10 17 18 19 20 rings

> <PUBCHEM_HEAVY_ATOM_COUNT>
34

> <PUBCHEM_ATOM_DEF_STEREO_COUNT>
0

> <PUBCHEM_ATOM_UDEF_STEREO_COUNT>
0

> <PUBCHEM_BOND_DEF_STEREO_COUNT>
2

> <PUBCHEM_BOND_UDEF_STEREO_COUNT>
0

> <PUBCHEM_ISOTOPIC_ATOM_COUNT>
0

> <PUBCHEM_COMPONENT_COUNT>
1

> <PUBCHEM_CACTVS_TAUTO_COUNT>
6

> <PUBCHEM_CONFORMER_ID>
0051DF0E00000002

> <PUBCHEM_MMFF94_ENERGY>
89.8994

> <PUBCHEM_FEATURE_SELFOVERLAP>
56.06

> <PUBCHEM_SHAPE_FINGERPRINT>
10076449 9 17632578262210001921
10162869 55 17530966908261865518
10391435 84 17967256420688158195
10580692 12 18411419526773086688
10674148 151 18186804661519900801
10939801 23 18413668011178871207
11315181 36 18342459219533591833
11828042 226 17916864742278779160
11966995 178 18131072650116570864
12013929 94 18341613754752161371
12082328 90 18342174415461348077
12120059 9 16515405166098249906
12144603 126 18201719574076338511
13740195 50 18408322219935050338
14142895 15 18410855482241314980
14251764 46 18259984885828552424
14251920 17 18340205289337311504
14671636 106 18411699924583853263
14918687 75 17703502303506204327
15152005 290 18410575116115311292
15347591 1 18192427459412006381
15530121 191 18272643550405160904
15728490 51 18412261753097032463
15840311 113 18334580162206192492
16067689 302 18272090474454003726
16664035 7 17240199928256589093
16728433 110 18334577962766237501
17686467 74 18186240641360246201
18335252 98 18412263926139565374
20105231 36 15841552976551603103
21049683 271 18272368680966435832
21130935 74 18267584606862504066
21792934 111 11386369266396644598
232437 2 18410012135290094698
24771293 8 18260272915052516468
24893992 56 18412823617182941600
2835820 33 18335423508419109211
335507 130 18272368693570944245
3418910 222 17989214719698161088
395649 100 18113901606837462219
44426699 60 18337675334214029896
4874694 18 17967252009387707482
54583773 228 18408889563613823572
6057620 51 18411702067197235808
67123 10 18410856572524691457
9663363 56 16877659072912803615
9831232 110 17912086054006399350

> <PUBCHEM_SHAPE_MULTIPOLES>
658.08
42.55
3.14
0.6
0.28
0.01
0
-0.21
-0.22
0.06
-0.02
0
0
-0.06

> <PUBCHEM_SHAPE_SELFOVERLAP>
1471.514

> <PUBCHEM_SHAPE_VOLUME>
346.3

> <PUBCHEM_COORDINATE_TYPE>
2
5
10

$$$$
