5364739
  -OEChem-02172602483D

 27 26  0     0  0  0  0  0  0999 V2000
    2.0738    0.1073   -0.4807 C   0  0  0  0  0  0  0  0  0  0  0  0
    0.6789   -0.1700    0.0677 C   0  0  0  0  0  0  0  0  0  0  0  0
   -1.7997   -0.7291   -0.2646 C   0  0  0  0  0  0  0  0  0  0  0  0
   -0.3928   -0.4392   -0.7060 C   0  0  0  0  0  0  0  0  0  0  0  0
    2.5453    1.5157   -0.1119 C   0  0  0  0  0  0  0  0  0  0  0  0
    3.1016   -0.9381   -0.0354 C   0  0  0  0  0  0  0  0  0  0  0  0
   -2.6511    0.5396   -0.2552 C   0  0  0  0  0  0  0  0  0  0  0  0
    0.5120   -0.1412    1.5679 C   0  0  0  0  0  0  0  0  0  0  0  0
   -4.0680    0.2549    0.2181 C   0  0  0  0  0  0  0  0  0  0  0  0
    2.0268    0.0624   -1.5773 H   0  0  0  0  0  0  0  0  0  0  0  0
   -1.8275   -1.2265    0.7103 H   0  0  0  0  0  0  0  0  0  0  0  0
   -2.2313   -1.4534   -0.9674 H   0  0  0  0  0  0  0  0  0  0  0  0
   -0.2489   -0.4422   -1.7856 H   0  0  0  0  0  0  0  0  0  0  0  0
    1.7926    2.2675   -0.3737 H   0  0  0  0  0  0  0  0  0  0  0  0
    3.4626    1.7624   -0.6583 H   0  0  0  0  0  0  0  0  0  0  0  0
    2.7698    1.6116    0.9555 H   0  0  0  0  0  0  0  0  0  0  0  0
    2.7692   -1.9487   -0.2964 H   0  0  0  0  0  0  0  0  0  0  0  0
    3.2719   -0.9056    1.0461 H   0  0  0  0  0  0  0  0  0  0  0  0
    4.0640   -0.7644   -0.5288 H   0  0  0  0  0  0  0  0  0  0  0  0
   -2.6883    0.9749   -1.2612 H   0  0  0  0  0  0  0  0  0  0  0  0
   -2.2021    1.2926    0.4038 H   0  0  0  0  0  0  0  0  0  0  0  0
    0.9751    0.7536    1.9941 H   0  0  0  0  0  0  0  0  0  0  0  0
    0.9897   -1.0182    2.0164 H   0  0  0  0  0  0  0  0  0  0  0  0
   -0.5255   -0.1178    1.9082 H   0  0  0  0  0  0  0  0  0  0  0  0
   -4.0682   -0.1445    1.2374 H   0  0  0  0  0  0  0  0  0  0  0  0
   -4.6611    1.1748    0.2139 H   0  0  0  0  0  0  0  0  0  0  0  0
   -4.5616   -0.4708   -0.4361 H   0  0  0  0  0  0  0  0  0  0  0  0
  1  2  1  0  0  0  0
  1  5  1  0  0  0  0
  1  6  1  0  0  0  0
  1 10  1  0  0  0  0
  2  4  2  0  0  0  0
  2  8  1  0  0  0  0
  3  4  1  0  0  0  0
  3  7  1  0  0  0  0
  3 11  1  0  0  0  0
  3 12  1  0  0  0  0
  4 13  1  0  0  0  0
  5 14  1  0  0  0  0
  5 15  1  0  0  0  0
  5 16  1  0  0  0  0
  6 17  1  0  0  0  0
  6 18  1  0  0  0  0
  6 19  1  0  0  0  0
  7  9  1  0  0  0  0
  7 20  1  0  0  0  0
  7 21  1  0  0  0  0
  8 22  1  0  0  0  0
  8 23  1  0  0  0  0
  8 24  1  0  0  0  0
  9 25  1  0  0  0  0
  9 26  1  0  0  0  0
  9 27  1  0  0  0  0
M  END
> <PUBCHEM_COMPOUND_CID>
5364739

> <PUBCHEM_CONFORMER_RMSD>
0.6

> <PUBCHEM_CONFORMER_DIVERSEORDER>
1
15
20
13
21
7
10
4
17
9
12
8
14
22
16
3
19
18
2
11
5
6

> <PUBCHEM_MMFF94_PARTIAL_CHARGES>
6
1 0.14
13 0.15
2 -0.28
3 0.14
4 -0.29
8 0.14

> <PUBCHEM_EFFECTIVE_ROTOR_COUNT>
3

> <PUBCHEM_PHARMACOPHORE_FEATURES>
3
1 8 hydrophobe
1 9 hydrophobe
3 1 5 6 hydrophobe

> <PUBCHEM_HEAVY_ATOM_COUNT>
9

> <PUBCHEM_ATOM_DEF_STEREO_COUNT>
0

> <PUBCHEM_ATOM_UDEF_STEREO_COUNT>
0

> <PUBCHEM_BOND_DEF_STEREO_COUNT>
1

> <PUBCHEM_BOND_UDEF_STEREO_COUNT>
0

> <PUBCHEM_ISOTOPIC_ATOM_COUNT>
0

> <PUBCHEM_COMPONENT_COUNT>
1

> <PUBCHEM_CACTVS_TAUTO_COUNT>
1

> <PUBCHEM_CONFORMER_ID>
0051DC0300000001

> <PUBCHEM_MMFF94_ENERGY>
5.9261

> <PUBCHEM_FEATURE_SELFOVERLAP>
15.228

> <PUBCHEM_SHAPE_FINGERPRINT>
10130415 120 17703790292972174530
10857977 72 15140679193920984869
11062470 55 12463565171266495999
12932764 1 17458613519509841655
14325111 11 18412263964867805903
14390081 3 18261107499995859893
15310529 11 18200312250610677006
170605 34 18114179773839482665
190213 19 17894631457074668823
20653085 51 18336276737615245500
20711983 171 18130791174348355205
21293036 1 16056882467659445853
22485316 2 8214137439745299121
3248919 1 18339065098971468735

> <PUBCHEM_SHAPE_MULTIPOLES>
185.22
5.96
1.1
0.99
4.02
0.26
-0.37
0.75
0.2
-0.73
0.07
-0.12
-0.06
-0.1

> <PUBCHEM_SHAPE_SELFOVERLAP>
333.264

> <PUBCHEM_SHAPE_VOLUME>
120

> <PUBCHEM_COORDINATE_TYPE>
2
5
10

$$$$
