102431707
  -OEChem-02172602493D

 37 39  0     0  0  0  0  0  0999 V2000
    0.4173   -0.3940   -0.2252 O   0  0  0  0  0  0  0  0  0  0  0  0
   -1.7990    1.7505    1.6814 O   0  0  0  0  0  0  0  0  0  0  0  0
   -4.1676    2.2775   -0.1356 O   0  0  0  0  0  0  0  0  0  0  0  0
    4.5166    1.5958   -0.1414 N   0  0  0  0  0  0  0  0  0  0  0  0
   -1.1893    1.6981   -0.5877 N   0  0  0  0  0  0  0  0  0  0  0  0
    3.3784   -0.3215   -0.0676 C   0  0  0  0  0  0  0  0  0  0  0  0
    2.4625    0.7577   -0.2139 C   0  0  0  0  0  0  0  0  0  0  0  0
    4.6600    0.2316   -0.0248 C   0  0  0  0  0  0  0  0  0  0  0  0
    3.1923    1.9234   -0.2562 C   0  0  0  0  0  0  0  0  0  0  0  0
    1.0313    0.6986   -0.3060 C   0  0  0  0  0  0  0  0  0  0  0  0
    3.2397   -1.7200    0.0327 C   0  0  0  0  0  0  0  0  0  0  0  0
    0.2099    1.9941   -0.4633 C   0  0  0  0  0  0  0  0  0  0  0  0
    5.8145   -0.5472    0.1138 C   0  0  0  0  0  0  0  0  0  0  0  0
    4.3856   -2.5116    0.1718 C   0  0  0  0  0  0  0  0  0  0  0  0
    5.6522   -1.9321    0.2115 C   0  0  0  0  0  0  0  0  0  0  0  0
   -2.0425    1.6080    0.4940 C   0  0  0  0  0  0  0  0  0  0  0  0
   -3.9329   -0.0861    0.0135 C   0  0  0  0  0  0  0  0  0  0  0  0
   -3.4546    1.3122    0.0965 C   0  0  0  0  0  0  0  0  0  0  0  0
   -3.0661   -1.1388    0.3067 C   0  0  0  0  0  0  0  0  0  0  0  0
   -5.2514   -0.3508   -0.3565 C   0  0  0  0  0  0  0  0  0  0  0  0
   -3.5176   -2.4563    0.2297 C   0  0  0  0  0  0  0  0  0  0  0  0
   -5.7031   -1.6682   -0.4334 C   0  0  0  0  0  0  0  0  0  0  0  0
   -4.8362   -2.7210   -0.1402 C   0  0  0  0  0  0  0  0  0  0  0  0
    2.9000    2.9595   -0.3570 H   0  0  0  0  0  0  0  0  0  0  0  0
    5.2793    2.2589   -0.1421 H   0  0  0  0  0  0  0  0  0  0  0  0
    2.2644   -2.1964    0.0042 H   0  0  0  0  0  0  0  0  0  0  0  0
    0.5207    2.5125   -1.3749 H   0  0  0  0  0  0  0  0  0  0  0  0
    0.3727    2.6301    0.4124 H   0  0  0  0  0  0  0  0  0  0  0  0
    6.8009   -0.0969    0.1448 H   0  0  0  0  0  0  0  0  0  0  0  0
    4.2848   -3.5909    0.2496 H   0  0  0  0  0  0  0  0  0  0  0  0
    6.5287   -2.5658    0.3202 H   0  0  0  0  0  0  0  0  0  0  0  0
   -1.5588    1.5398   -1.5209 H   0  0  0  0  0  0  0  0  0  0  0  0
   -2.0380   -0.9709    0.6088 H   0  0  0  0  0  0  0  0  0  0  0  0
   -5.9429    0.4547   -0.5888 H   0  0  0  0  0  0  0  0  0  0  0  0
   -2.8436   -3.2762    0.4604 H   0  0  0  0  0  0  0  0  0  0  0  0
   -6.7298   -1.8747   -0.7213 H   0  0  0  0  0  0  0  0  0  0  0  0
   -5.1881   -3.7468   -0.1995 H   0  0  0  0  0  0  0  0  0  0  0  0
  1 10  2  0  0  0  0
  2 16  2  0  0  0  0
  3 18  2  0  0  0  0
  4  8  1  0  0  0  0
  4  9  1  0  0  0  0
  4 25  1  0  0  0  0
  5 12  1  0  0  0  0
  5 16  1  0  0  0  0
  5 32  1  0  0  0  0
  6  7  1  0  0  0  0
  6  8  1  0  0  0  0
  6 11  2  0  0  0  0
  7  9  2  0  0  0  0
  7 10  1  0  0  0  0
  8 13  2  0  0  0  0
  9 24  1  0  0  0  0
 10 12  1  0  0  0  0
 11 14  1  0  0  0  0
 11 26  1  0  0  0  0
 12 27  1  0  0  0  0
 12 28  1  0  0  0  0
 13 15  1  0  0  0  0
 13 29  1  0  0  0  0
 14 15  2  0  0  0  0
 14 30  1  0  0  0  0
 15 31  1  0  0  0  0
 16 18  1  0  0  0  0
 17 18  1  0  0  0  0
 17 19  2  0  0  0  0
 17 20  1  0  0  0  0
 19 21  1  0  0  0  0
 19 33  1  0  0  0  0
 20 22  2  0  0  0  0
 20 34  1  0  0  0  0
 21 23  2  0  0  0  0
 21 35  1  0  0  0  0
 22 23  1  0  0  0  0
 22 36  1  0  0  0  0
 23 37  1  0  0  0  0
M  END
> <PUBCHEM_COMPOUND_CID>
102431707

> <PUBCHEM_CONFORMER_RMSD>
1

> <PUBCHEM_CONFORMER_DIVERSEORDER>
1
46
61
137
3
143
68
64
158
97
9
21
33
42
86
116
44
130
63
99
8
94
54
161
32
150
157
67
118
151
69
73
82
146
40
65
122
52
100
92
22
84
121
162
75
101
81
76
119
34
138
6
120
87
129
133
109
139
35
41
132
70
112
145
24
37
155
83
131
134
126
45
108
18
107
165
110
128
13
77
91
43
47
20
154
30
78
51
27
96
2
26
66
29
140
31
167
102
105
95
104
153
39
152
88
164
23
89
49
12
124
144
55
85
98
114
72
25
117
166
149
58
48
111
5
160
159
53
38
136
125
36
19
10
4
115
57
163
28
103
60
16
148
15
80
59
71
74
123
142
147
90
11
7
106
135
141
79
113
50
62
156
127
56
168
93
14
17

> <PUBCHEM_MMFF94_PARTIAL_CHARGES>
34
1 -0.57
10 0.6
11 -0.15
12 0.36
13 -0.15
14 -0.15
15 -0.15
16 0.63
17 0.09
18 0.48
19 -0.15
2 -0.57
20 -0.15
21 -0.15
22 -0.15
23 -0.15
24 0.15
25 0.27
26 0.15
29 0.15
3 -0.57
30 0.15
31 0.15
32 0.37
33 0.15
34 0.15
35 0.15
36 0.15
37 0.15
4 0.03
5 -0.73
7 -0.09
8 -0.15
9 -0.3

> <PUBCHEM_EFFECTIVE_ROTOR_COUNT>
6

> <PUBCHEM_PHARMACOPHORE_FEATURES>
9
1 1 acceptor
1 2 acceptor
1 3 acceptor
1 4 cation
1 4 donor
1 5 donor
5 4 6 7 8 9 rings
6 17 19 20 21 22 23 rings
6 6 8 11 13 14 15 rings

> <PUBCHEM_HEAVY_ATOM_COUNT>
23

> <PUBCHEM_ATOM_DEF_STEREO_COUNT>
0

> <PUBCHEM_ATOM_UDEF_STEREO_COUNT>
0

> <PUBCHEM_BOND_DEF_STEREO_COUNT>
0

> <PUBCHEM_BOND_UDEF_STEREO_COUNT>
0

> <PUBCHEM_ISOTOPIC_ATOM_COUNT>
0

> <PUBCHEM_COMPONENT_COUNT>
1

> <PUBCHEM_CACTVS_TAUTO_COUNT>
16

> <PUBCHEM_CONFORMER_ID>
061AFBDB00000001

> <PUBCHEM_MMFF94_ENERGY>
48.6219

> <PUBCHEM_FEATURE_SELFOVERLAP>
45.764

> <PUBCHEM_SHAPE_FINGERPRINT>
10595046 47 18410014376777954004
10693767 8 17767667727750812351
10835480 77 18337662109635198885
11796584 16 18269273469781385736
11963148 33 18191300478192796570
12107183 9 17978230456754265131
12596602 18 17989487399298312648
12760667 363 18342737438582245927
13167823 11 18410291406505373422
13533116 47 18339642338328342160
14211702 104 18342463620973379942
14461889 52 18341603859437142722
14790565 3 17326620701008605796
14866123 147 18412832378990240811
15196674 1 18410012130430540629
15250474 111 18409448068207579946
15352361 1 18409729586233930495
15880784 105 18412266112488760080
17492 89 18337112366463255643
17844677 252 18411143540933638692
17857418 61 18408603647741012450
19141452 34 18336268920848951189
19958102 18 18187354425164152583
20028762 73 18411696557203425314
21033648 29 14620527696604576041
21267235 1 18409455794816705239
21673915 165 18409729569101670438
22393880 68 17968364680984564653
23424784 1240 18270694086007655502
23559900 14 18339915030667236017
3004659 81 18187078477113843635
329604 57 18342177799193853250
338550 245 18335142007609317446
4073 2 18114467846218289298
4214541 1 18410012109135208093
439807 62 18410012174129631227
5104073 3 18201720647765187984
559249 180 18336262345691383613
5924683 9 18413109437933644305
633830 44 16732996301153573524
6431902 208 18337389439225224807
7495541 125 17775281707341534088
7970288 3 18123185968758412823
9709674 26 18188217592677215386

> <PUBCHEM_SHAPE_MULTIPOLES>
445.76
15.1
3.09
0.76
1.47
0.72
-0.15
8.5
0.44
-1.13
-0.09
-0.27
-0.19
-0.69

> <PUBCHEM_SHAPE_SELFOVERLAP>
978.498

> <PUBCHEM_SHAPE_VOLUME>
239.9

> <PUBCHEM_COORDINATE_TYPE>
2
5
10

$$$$
