5365311
  -OEChem-02172602533D

 58 61  0     1  0  0  0  0  0999 V2000
   -6.6273   -2.8563    0.2656 Cl  0  0  0  0  0  0  0  0  0  0  0  0
   -2.7753    0.7587    0.7657 O   0  0  0  0  0  0  0  0  0  0  0  0
   -0.3382    2.0202    0.9055 N   0  0  0  0  0  0  0  0  0  0  0  0
   -0.7509   -2.6160   -0.5430 N   0  0  0  0  0  0  0  0  0  0  0  0
   -2.0189    4.6074   -0.7984 N   0  0  0  0  0  0  0  0  0  0  0  0
    2.1713   -0.6996    0.4060 C   0  0  1  0  0  0  0  0  0  0  0  0
    1.6197    0.7301    0.3296 C   0  0  0  0  0  0  0  0  0  0  0  0
    1.4166   -1.5884   -0.5768 C   0  0  0  0  0  0  0  0  0  0  0  0
    0.1089    0.7967    0.4762 C   0  0  0  0  0  0  0  0  0  0  0  0
   -0.0692   -1.5434   -0.2905 C   0  0  0  0  0  0  0  0  0  0  0  0
   -0.6758   -0.2731    0.2148 C   0  0  0  0  0  0  0  0  0  0  0  0
    3.6718   -0.7439    0.1862 C   0  0  0  0  0  0  0  0  0  0  0  0
   -2.1578   -0.2319    0.4012 C   0  0  0  0  0  0  0  0  0  0  0  0
    0.3115    3.2558    0.5690 C   0  0  0  0  0  0  0  0  0  0  0  0
   -2.8610   -1.5018    0.1172 C   0  0  0  0  0  0  0  0  0  0  0  0
    4.2083   -0.3199   -1.0277 C   0  0  0  0  0  0  0  0  0  0  0  0
    4.5082   -1.2089    1.1986 C   0  0  0  0  0  0  0  0  0  0  0  0
   -2.1396   -2.6189   -0.3283 C   0  0  0  0  0  0  0  0  0  0  0  0
   -0.4677    4.4460    1.1276 C   0  0  0  0  0  0  0  0  0  0  0  0
   -1.9219    4.5347    0.6544 C   0  0  0  0  0  0  0  0  0  0  0  0
    5.5878   -0.3613   -1.2302 C   0  0  0  0  0  0  0  0  0  0  0  0
    5.8877   -1.2502    0.9961 C   0  0  0  0  0  0  0  0  0  0  0  0
    6.4275   -0.8264   -0.2182 C   0  0  0  0  0  0  0  0  0  0  0  0
   -4.2481   -1.5739    0.3009 C   0  0  0  0  0  0  0  0  0  0  0  0
   -2.8375   -3.8071   -0.5844 C   0  0  0  0  0  0  0  0  0  0  0  0
   -4.9233   -2.7652    0.0411 C   0  0  0  0  0  0  0  0  0  0  0  0
   -4.2191   -3.8814   -0.4009 C   0  0  0  0  0  0  0  0  0  0  0  0
    7.9022   -0.8703   -0.4344 C   0  0  0  0  0  0  0  0  0  0  0  0
   -1.3711    5.8215   -1.2983 C   0  0  0  0  0  0  0  0  0  0  0  0
   -3.4189    4.5671   -1.2246 C   0  0  0  0  0  0  0  0  0  0  0  0
    1.9619   -1.0758    1.4189 H   0  0  0  0  0  0  0  0  0  0  0  0
    2.1039    1.2939    1.1381 H   0  0  0  0  0  0  0  0  0  0  0  0
    1.8979    1.2151   -0.6148 H   0  0  0  0  0  0  0  0  0  0  0  0
    1.5618   -1.2759   -1.6180 H   0  0  0  0  0  0  0  0  0  0  0  0
    1.7665   -2.6251   -0.4954 H   0  0  0  0  0  0  0  0  0  0  0  0
   -1.3113    2.0530    1.1855 H   0  0  0  0  0  0  0  0  0  0  0  0
    1.3173    3.3009    1.0010 H   0  0  0  0  0  0  0  0  0  0  0  0
    0.4182    3.3493   -0.5180 H   0  0  0  0  0  0  0  0  0  0  0  0
    3.5734    0.0447   -1.8302 H   0  0  0  0  0  0  0  0  0  0  0  0
    4.1030   -1.5421    2.1501 H   0  0  0  0  0  0  0  0  0  0  0  0
    0.0773    5.3732    0.9181 H   0  0  0  0  0  0  0  0  0  0  0  0
   -0.4856    4.3636    2.2231 H   0  0  0  0  0  0  0  0  0  0  0  0
   -2.3859    5.4157    1.1191 H   0  0  0  0  0  0  0  0  0  0  0  0
   -2.4872    3.6742    1.0284 H   0  0  0  0  0  0  0  0  0  0  0  0
    5.9965   -0.0271   -2.1801 H   0  0  0  0  0  0  0  0  0  0  0  0
    6.5319   -1.6129    1.7929 H   0  0  0  0  0  0  0  0  0  0  0  0
   -4.8053   -0.7064    0.6469 H   0  0  0  0  0  0  0  0  0  0  0  0
   -2.3036   -4.6888   -0.9323 H   0  0  0  0  0  0  0  0  0  0  0  0
   -4.7312   -4.8176   -0.6084 H   0  0  0  0  0  0  0  0  0  0  0  0
    8.1422   -1.0389   -1.4898 H   0  0  0  0  0  0  0  0  0  0  0  0
    8.3606   -1.6879    0.1323 H   0  0  0  0  0  0  0  0  0  0  0  0
    8.3566    0.0737   -0.1179 H   0  0  0  0  0  0  0  0  0  0  0  0
   -0.2854    5.7907   -1.1677 H   0  0  0  0  0  0  0  0  0  0  0  0
   -1.7614    6.7288   -0.8229 H   0  0  0  0  0  0  0  0  0  0  0  0
   -1.5277    5.9172   -2.3796 H   0  0  0  0  0  0  0  0  0  0  0  0
   -3.8970    3.6403   -0.8878 H   0  0  0  0  0  0  0  0  0  0  0  0
   -3.9944    5.4148   -0.8352 H   0  0  0  0  0  0  0  0  0  0  0  0
   -3.4895    4.5742   -2.3180 H   0  0  0  0  0  0  0  0  0  0  0  0
  1 26  1  0  0  0  0
  2 13  2  0  0  0  0
  3  9  1  0  0  0  0
  3 14  1  0  0  0  0
  3 36  1  0  0  0  0
  4 10  2  0  0  0  0
  4 18  1  0  0  0  0
  5 20  1  0  0  0  0
  5 29  1  0  0  0  0
  5 30  1  0  0  0  0
  6  7  1  0  0  0  0
  6  8  1  0  0  0  0
  6 12  1  0  0  0  0
  6 31  1  0  0  0  0
  7  9  1  0  0  0  0
  7 32  1  0  0  0  0
  7 33  1  0  0  0  0
  8 10  1  0  0  0  0
  8 34  1  0  0  0  0
  8 35  1  0  0  0  0
  9 11  2  0  0  0  0
 10 11  1  0  0  0  0
 11 13  1  0  0  0  0
 12 16  2  0  0  0  0
 12 17  1  0  0  0  0
 13 15  1  0  0  0  0
 14 19  1  0  0  0  0
 14 37  1  0  0  0  0
 14 38  1  0  0  0  0
 15 18  2  0  0  0  0
 15 24  1  0  0  0  0
 16 21  1  0  0  0  0
 16 39  1  0  0  0  0
 17 22  2  0  0  0  0
 17 40  1  0  0  0  0
 18 25  1  0  0  0  0
 19 20  1  0  0  0  0
 19 41  1  0  0  0  0
 19 42  1  0  0  0  0
 20 43  1  0  0  0  0
 20 44  1  0  0  0  0
 21 23  2  0  0  0  0
 21 45  1  0  0  0  0
 22 23  1  0  0  0  0
 22 46  1  0  0  0  0
 23 28  1  0  0  0  0
 24 26  2  0  0  0  0
 24 47  1  0  0  0  0
 25 27  2  0  0  0  0
 25 48  1  0  0  0  0
 26 27  1  0  0  0  0
 27 49  1  0  0  0  0
 28 50  1  0  0  0  0
 28 51  1  0  0  0  0
 28 52  1  0  0  0  0
 29 53  1  0  0  0  0
 29 54  1  0  0  0  0
 29 55  1  0  0  0  0
 30 56  1  0  0  0  0
 30 57  1  0  0  0  0
 30 58  1  0  0  0  0
M  END
> <PUBCHEM_COMPOUND_CID>
5365311

> <PUBCHEM_CONFORMER_RMSD>
0.8

> <PUBCHEM_CONFORMER_DIVERSEORDER>
6
87
36
81
59
70
117
13
135
34
38
50
113
107
8
129
57
121
42
142
97
75
102
4
137
90
65
43
84
22
115
69
41
114
120
80
10
122
26
89
101
77
85
79
54
73
100
95
9
78
96
139
111
71
74
143
40
133
16
92
146
147
88
82
18
125
124
12
86
61
134
128
131
130
3
49
44
66
138
118
83
150
53
37
33
151
23
64
94
99
132
32
109
126
27
25
136
2
62
140
35
11
55
58
68
39
17
52
51
48
7
105
116
141
60
67
29
127
110
56
93
14
112
63
45
98
21
104
91
5
119
46
15
148
28
149
1
30
20
144
72
123
76
145
24
106
108
47
103
31
19

> <PUBCHEM_MMFF94_PARTIAL_CHARGES>
37
1 -0.18
10 0.37
11 0.03
12 -0.14
13 0.47
14 0.37
15 0.09
16 -0.15
17 -0.15
18 0.18
2 -0.57
20 0.27
21 -0.15
22 -0.15
23 -0.14
24 -0.15
25 -0.15
26 0.18
27 -0.15
28 0.14
29 0.27
3 -0.87
30 0.27
36 0.4
39 0.15
4 -0.63
40 0.15
45 0.15
46 0.15
47 0.15
48 0.15
49 0.15
5 -0.81
6 0.14
7 0.14
8 0.06
9 -0.04

> <PUBCHEM_EFFECTIVE_ROTOR_COUNT>
6.6

> <PUBCHEM_PHARMACOPHORE_FEATURES>
9
1 2 acceptor
1 3 cation
1 3 donor
1 4 acceptor
1 5 cation
6 12 16 17 21 22 23 rings
6 15 18 24 25 26 27 rings
6 4 10 11 13 15 18 rings
6 6 7 8 9 10 11 rings

> <PUBCHEM_HEAVY_ATOM_COUNT>
30

> <PUBCHEM_ATOM_DEF_STEREO_COUNT>
0

> <PUBCHEM_ATOM_UDEF_STEREO_COUNT>
1

> <PUBCHEM_BOND_DEF_STEREO_COUNT>
0

> <PUBCHEM_BOND_UDEF_STEREO_COUNT>
0

> <PUBCHEM_ISOTOPIC_ATOM_COUNT>
0

> <PUBCHEM_COMPONENT_COUNT>
1

> <PUBCHEM_CACTVS_TAUTO_COUNT>
22

> <PUBCHEM_CONFORMER_ID>
0051DE3F00000006

> <PUBCHEM_MMFF94_ENERGY>
81.5761

> <PUBCHEM_FEATURE_SELFOVERLAP>
45.725

> <PUBCHEM_SHAPE_FINGERPRINT>
10074138 170 17833509489511585792
10411042 1 18340769363538202587
10985338 1 16813464940554050593
11056379 131 18340775832312493946
11059845 2 17760622808589489514
11297750 10 18272361006107531480
11991303 11 18045219336611460132
12166972 35 18041842930113977582
12236239 1 18186802504650232854
12516196 113 18340485681412700898
12788726 201 18334571317903347938
13540713 5 17412189038368642991
13590594 115 18337114570187089067
138480 1 15674080472351717537
13911987 19 17905885881819581596
14068700 675 18261675956466503252
14117953 113 18272936042389028351
14294032 229 18266753384624962201
14556957 393 18188508955333436340
15042514 8 18342178847245267674
15198563 99 18411419492471832597
16087824 20 18340208497782967577
16993438 75 18190745237456920577
17492 89 17693936701994032143
19427546 20 18337113367749635868
20642791 105 18337948987891075744
21033648 29 16845567625920900962
21033650 10 18118147830491428646
21049683 271 18120663679903094173
21267235 1 18341900739697503450
21796203 349 17904802038189732795
23366157 5 17689430907521334819
23559900 14 18053940933837700499
23929065 36 18339625773304328160
24771750 20 17109602419605577300
3004659 81 18261672683828621438
3103668 31 18408884010753905469
335352 9 18342458188378022023
376196 1 17034731733858489329
4409770 3 18337387120122025145
5104073 3 17841720904885193075
6058803 2 17409376509078379927
6691757 9 17910098124334861418
6700243 42 18055949591283575564
9981440 41 17833268623461721137

> <PUBCHEM_SHAPE_MULTIPOLES>
598.44
14.06
7.48
1.09
19.83
14.86
-0.07
-15.75
-1.1
-12.95
-1.78
0.48
0.72
0.46

> <PUBCHEM_SHAPE_SELFOVERLAP>
1279.542

> <PUBCHEM_SHAPE_VOLUME>
333

> <PUBCHEM_COORDINATE_TYPE>
2
5
10

$$$$
