6428431
  -OEChem-02172602253D

 25 24  0     0  0  0  0  0  0999 V2000
    0.5630    1.4535   -0.3749 O   0  0  0  0  0  0  0  0  0  0  0  0
    2.9039   -0.2935    0.0923 C   0  0  0  0  0  0  0  0  0  0  0  0
    1.6182   -0.6687   -0.0410 C   0  0  0  0  0  0  0  0  0  0  0  0
   -2.0598    0.0144    0.0093 C   0  0  0  0  0  0  0  0  0  0  0  0
    0.4556    0.2420   -0.2595 C   0  0  0  0  0  0  0  0  0  0  0  0
    3.9672   -1.3406    0.3090 C   0  0  0  0  0  0  0  0  0  0  0  0
    3.4362    1.1111    0.0349 C   0  0  0  0  0  0  0  0  0  0  0  0
   -0.8515   -0.4781   -0.3329 C   0  0  0  0  0  0  0  0  0  0  0  0
   -2.3108    1.3939    0.5618 C   0  0  0  0  0  0  0  0  0  0  0  0
   -3.2230   -0.8640   -0.1401 C   0  0  0  0  0  0  0  0  0  0  0  0
   -4.4991   -0.5701    0.1412 C   0  0  0  0  0  0  0  0  0  0  0  0
    1.3790   -1.7282    0.0235 H   0  0  0  0  0  0  0  0  0  0  0  0
    4.5067   -1.1429    1.2412 H   0  0  0  0  0  0  0  0  0  0  0  0
    3.5525   -2.3521    0.3756 H   0  0  0  0  0  0  0  0  0  0  0  0
    4.6847   -1.3308   -0.5182 H   0  0  0  0  0  0  0  0  0  0  0  0
    4.4467    1.1197   -0.3899 H   0  0  0  0  0  0  0  0  0  0  0  0
    2.8457    1.7727   -0.6011 H   0  0  0  0  0  0  0  0  0  0  0  0
    3.4913    1.5356    1.0421 H   0  0  0  0  0  0  0  0  0  0  0  0
   -0.7777   -1.5081   -0.6799 H   0  0  0  0  0  0  0  0  0  0  0  0
   -2.8821    1.9951   -0.1537 H   0  0  0  0  0  0  0  0  0  0  0  0
   -1.3982    1.9432    0.7993 H   0  0  0  0  0  0  0  0  0  0  0  0
   -2.8722    1.3389    1.5016 H   0  0  0  0  0  0  0  0  0  0  0  0
   -3.0284   -1.8656   -0.5215 H   0  0  0  0  0  0  0  0  0  0  0  0
   -5.2724   -1.3157   -0.0148 H   0  0  0  0  0  0  0  0  0  0  0  0
   -4.8145    0.3944    0.5214 H   0  0  0  0  0  0  0  0  0  0  0  0
  1  5  2  0  0  0  0
  2  3  2  0  0  0  0
  2  6  1  0  0  0  0
  2  7  1  0  0  0  0
  3  5  1  0  0  0  0
  3 12  1  0  0  0  0
  4  8  2  0  0  0  0
  4  9  1  0  0  0  0
  4 10  1  0  0  0  0
  5  8  1  0  0  0  0
  6 13  1  0  0  0  0
  6 14  1  0  0  0  0
  6 15  1  0  0  0  0
  7 16  1  0  0  0  0
  7 17  1  0  0  0  0
  7 18  1  0  0  0  0
  8 19  1  0  0  0  0
  9 20  1  0  0  0  0
  9 21  1  0  0  0  0
  9 22  1  0  0  0  0
 10 11  2  0  0  0  0
 10 23  1  0  0  0  0
 11 24  1  0  0  0  0
 11 25  1  0  0  0  0
M  END
> <PUBCHEM_COMPOUND_CID>
6428431

> <PUBCHEM_CONFORMER_RMSD>
0.6

> <PUBCHEM_CONFORMER_DIVERSEORDER>
1
17
11
20
14
4
19
9
10
22
2
12
21
15
16
6
7
13
3
18
8
5

> <PUBCHEM_MMFF94_PARTIAL_CHARGES>
16
1 -0.57
10 -0.15
11 -0.3
12 0.15
19 0.15
2 -0.28
23 0.15
24 0.15
25 0.15
3 -0.14
4 -0.14
5 0.54
6 0.14
7 0.14
8 -0.14
9 0.14

> <PUBCHEM_EFFECTIVE_ROTOR_COUNT>
3

> <PUBCHEM_PHARMACOPHORE_FEATURES>
4
1 1 acceptor
1 11 hydrophobe
1 9 hydrophobe
3 2 6 7 hydrophobe

> <PUBCHEM_HEAVY_ATOM_COUNT>
11

> <PUBCHEM_ATOM_DEF_STEREO_COUNT>
0

> <PUBCHEM_ATOM_UDEF_STEREO_COUNT>
0

> <PUBCHEM_BOND_DEF_STEREO_COUNT>
1

> <PUBCHEM_BOND_UDEF_STEREO_COUNT>
0

> <PUBCHEM_ISOTOPIC_ATOM_COUNT>
0

> <PUBCHEM_COMPONENT_COUNT>
1

> <PUBCHEM_CACTVS_TAUTO_COUNT>
8

> <PUBCHEM_CONFORMER_ID>
0062170F00000001

> <PUBCHEM_MMFF94_ENERGY>
25.7928

> <PUBCHEM_FEATURE_SELFOVERLAP>
20.299

> <PUBCHEM_SHAPE_FINGERPRINT>
10219947 1 18412265047020268350
11062470 55 18408603686358658423
12032990 46 18408605833805558590
12251169 10 18272644658579464710
12932764 1 16559021679933070246
13690532 89 18407758144863883351
14144814 61 18411702079797131586
14252887 29 18341338829109934218
14325111 11 18412263921791467252
14943859 89 9295287244506152527
177051 138 18411138017716407286
18522853 276 18341894099624660257
190213 19 18260264152965252086
19422 9 18410296882767984970
200 152 18343292683200580847
20279233 1 15791731914527534192
20281407 28 16732984219183248930
20645477 56 9655569708321248551
20645477 70 18408036299498831326
20711985 327 17967541155233407260
20871998 22 18270403759451020150
21119208 17 8502379931377182811
21501925 9 18410005537966958130
22485316 2 18186515523008022715
22959321 4 18410292501901304066
23402539 116 18131061629045405397
42 15 18411702071228523355
5374978 207 18343861134405695713

> <PUBCHEM_SHAPE_MULTIPOLES>
220.51
8.07
1.39
0.68
0.99
0.31
-0.02
-2.06
-0.91
-0.41
-0.08
0.04
0.02
-0.36

> <PUBCHEM_SHAPE_SELFOVERLAP>
420.425

> <PUBCHEM_SHAPE_VOLUME>
135.5

> <PUBCHEM_COORDINATE_TYPE>
2
5
10

$$$$
