12301592
  -OEChem-02172602453D

 45 47  0     0  0  0  0  0  0999 V2000
    5.7996    0.7305   -0.2495 O   0  0  0  0  0  0  0  0  0  0  0  0
   -4.6930   -1.7941   -0.1867 O   0  0  0  0  0  0  0  0  0  0  0  0
   -6.1301    0.5715    0.0622 O   0  0  0  0  0  0  0  0  0  0  0  0
    3.8034    1.8898    0.0567 N   0  0  0  0  0  0  0  0  0  0  0  0
    0.2569    0.7099    0.5800 C   0  0  0  0  0  0  0  0  0  0  0  0
    1.7405    0.6996    0.3585 C   0  0  0  0  0  0  0  0  0  0  0  0
   -0.5438    0.7199   -0.7230 C   0  0  0  0  0  0  0  0  0  0  0  0
    2.4708   -0.5779    0.2440 C   0  0  0  0  0  0  0  0  0  0  0  0
    3.8612   -0.5609    0.0371 C   0  0  0  0  0  0  0  0  0  0  0  0
    2.4385    1.8408    0.2598 C   0  0  0  0  0  0  0  0  0  0  0  0
   -2.0379    0.6769   -0.5129 C   0  0  0  0  0  0  0  0  0  0  0  0
    4.5845    0.7359   -0.0657 C   0  0  0  0  0  0  0  0  0  0  0  0
    1.8279   -1.8227    0.3346 C   0  0  0  0  0  0  0  0  0  0  0  0
    4.5843   -1.7569   -0.0753 C   0  0  0  0  0  0  0  0  0  0  0  0
   -2.6794   -0.5499   -0.4466 C   0  0  0  0  0  0  0  0  0  0  0  0
   -2.7414    1.8648   -0.3908 C   0  0  0  0  0  0  0  0  0  0  0  0
    4.4228    3.2085   -0.0308 C   0  0  0  0  0  0  0  0  0  0  0  0
    2.5501   -3.0134    0.2224 C   0  0  0  0  0  0  0  0  0  0  0  0
    3.9256   -2.9804    0.0179 C   0  0  0  0  0  0  0  0  0  0  0  0
   -4.0603   -0.5897   -0.2532 C   0  0  0  0  0  0  0  0  0  0  0  0
   -4.1221    1.8250   -0.1973 C   0  0  0  0  0  0  0  0  0  0  0  0
   -4.7815    0.5979   -0.1283 C   0  0  0  0  0  0  0  0  0  0  0  0
   -3.8832   -2.9602   -0.3236 C   0  0  0  0  0  0  0  0  0  0  0  0
   -6.5935    0.5351    1.4105 C   0  0  0  0  0  0  0  0  0  0  0  0
   -0.0082    1.6142    1.1481 H   0  0  0  0  0  0  0  0  0  0  0  0
   -0.0619   -0.1052    1.2395 H   0  0  0  0  0  0  0  0  0  0  0  0
   -0.2905    1.6124   -1.3115 H   0  0  0  0  0  0  0  0  0  0  0  0
   -0.2496   -0.1291   -1.3547 H   0  0  0  0  0  0  0  0  0  0  0  0
    1.9425    2.8040    0.3363 H   0  0  0  0  0  0  0  0  0  0  0  0
    0.7552   -1.9076    0.4806 H   0  0  0  0  0  0  0  0  0  0  0  0
    5.6590   -1.7555   -0.2354 H   0  0  0  0  0  0  0  0  0  0  0  0
   -2.0639   -1.4371   -0.5470 H   0  0  0  0  0  0  0  0  0  0  0  0
   -2.2362    2.8250   -0.4411 H   0  0  0  0  0  0  0  0  0  0  0  0
    3.9808    3.7563   -0.8691 H   0  0  0  0  0  0  0  0  0  0  0  0
    5.5018    3.1334   -0.1900 H   0  0  0  0  0  0  0  0  0  0  0  0
    4.2418    3.7514    0.9023 H   0  0  0  0  0  0  0  0  0  0  0  0
    2.0349   -3.9673    0.2921 H   0  0  0  0  0  0  0  0  0  0  0  0
    4.4849   -3.9072   -0.0697 H   0  0  0  0  0  0  0  0  0  0  0  0
   -4.6776    2.7539   -0.1010 H   0  0  0  0  0  0  0  0  0  0  0  0
   -3.1571   -3.0455    0.4922 H   0  0  0  0  0  0  0  0  0  0  0  0
   -3.4105   -3.0102   -1.3104 H   0  0  0  0  0  0  0  0  0  0  0  0
   -4.5497   -3.8257   -0.2468 H   0  0  0  0  0  0  0  0  0  0  0  0
   -6.2280   -0.3621    1.9199 H   0  0  0  0  0  0  0  0  0  0  0  0
   -7.6865    0.5084    1.3966 H   0  0  0  0  0  0  0  0  0  0  0  0
   -6.2721    1.4313    1.9506 H   0  0  0  0  0  0  0  0  0  0  0  0
  1 12  2  0  0  0  0
  2 20  1  0  0  0  0
  2 23  1  0  0  0  0
  3 22  1  0  0  0  0
  3 24  1  0  0  0  0
  4 10  1  0  0  0  0
  4 12  1  0  0  0  0
  4 17  1  0  0  0  0
  5  6  1  0  0  0  0
  5  7  1  0  0  0  0
  5 25  1  0  0  0  0
  5 26  1  0  0  0  0
  6  8  1  0  0  0  0
  6 10  2  0  0  0  0
  7 11  1  0  0  0  0
  7 27  1  0  0  0  0
  7 28  1  0  0  0  0
  8  9  1  0  0  0  0
  8 13  2  0  0  0  0
  9 12  1  0  0  0  0
  9 14  2  0  0  0  0
 10 29  1  0  0  0  0
 11 15  2  0  0  0  0
 11 16  1  0  0  0  0
 13 18  1  0  0  0  0
 13 30  1  0  0  0  0
 14 19  1  0  0  0  0
 14 31  1  0  0  0  0
 15 20  1  0  0  0  0
 15 32  1  0  0  0  0
 16 21  2  0  0  0  0
 16 33  1  0  0  0  0
 17 34  1  0  0  0  0
 17 35  1  0  0  0  0
 17 36  1  0  0  0  0
 18 19  2  0  0  0  0
 18 37  1  0  0  0  0
 19 38  1  0  0  0  0
 20 22  2  0  0  0  0
 21 22  1  0  0  0  0
 21 39  1  0  0  0  0
 23 40  1  0  0  0  0
 23 41  1  0  0  0  0
 23 42  1  0  0  0  0
 24 43  1  0  0  0  0
 24 44  1  0  0  0  0
 24 45  1  0  0  0  0
M  END
> <PUBCHEM_COMPOUND_CID>
12301592

> <PUBCHEM_CONFORMER_RMSD>
0.8

> <PUBCHEM_CONFORMER_DIVERSEORDER>
5
9
11
16
26
24
18
32
14
12
10
22
15
3
8
25
13
28
2
4
17
34
23
20
1
7
6
30
21
27
19
31
29
33

> <PUBCHEM_MMFF94_PARTIAL_CHARGES>
32
1 -0.57
10 -0.04
11 -0.14
12 0.54
13 -0.15
14 -0.15
15 -0.15
16 -0.15
17 0.3
18 -0.15
19 -0.15
2 -0.36
20 0.08
21 -0.15
22 0.08
23 0.28
24 0.28
29 0.15
3 -0.36
30 0.15
31 0.15
32 0.15
33 0.15
37 0.15
38 0.15
39 0.15
4 -0.47
5 0.14
6 -0.17
7 0.14
8 0.03
9 0.09

> <PUBCHEM_EFFECTIVE_ROTOR_COUNT>
5

> <PUBCHEM_PHARMACOPHORE_FEATURES>
6
1 1 acceptor
1 2 acceptor
1 3 acceptor
6 11 15 16 20 21 22 rings
6 4 6 8 9 10 12 rings
6 8 9 13 14 18 19 rings

> <PUBCHEM_HEAVY_ATOM_COUNT>
24

> <PUBCHEM_ATOM_DEF_STEREO_COUNT>
0

> <PUBCHEM_ATOM_UDEF_STEREO_COUNT>
0

> <PUBCHEM_BOND_DEF_STEREO_COUNT>
0

> <PUBCHEM_BOND_UDEF_STEREO_COUNT>
0

> <PUBCHEM_ISOTOPIC_ATOM_COUNT>
0

> <PUBCHEM_COMPONENT_COUNT>
1

> <PUBCHEM_CACTVS_TAUTO_COUNT>
1

> <PUBCHEM_CONFORMER_ID>
00BBB51800000005

> <PUBCHEM_MMFF94_ENERGY>
85.8433

> <PUBCHEM_FEATURE_SELFOVERLAP>
30.476

> <PUBCHEM_SHAPE_FINGERPRINT>
10411042 1 18050285861467355546
10595046 47 18412824720098492885
10616163 171 18411979199994035063
10693767 8 18130231437837989662
11405975 8 18342173345655684737
11552529 35 17987794258750129079
12107183 9 17765156072959867545
12236239 1 17775284967369495312
12596602 18 17275102885460587659
12633257 1 18201723903941215283
12730499 353 18334863826946167776
12788726 201 17346042160710357625
13009979 54 17557989442518843802
13167823 11 18413103957243904407
13533116 47 18342455920223215873
13631057 29 18054786454068615943
13955234 65 18411132529101605456
14251764 18 18131633383818874819
14341114 176 18411985723990906541
14617045 38 18409455769247303071
14790565 3 17905610252514095044
15196674 1 18410571786197241663
15238133 3 16773519867758065625
15250474 111 18270948129101963311
15537594 2 18273211997662285343
15799311 1 18339093647956584791
16110190 28 18412831291862465059
17844677 252 18338803303719842853
1813 80 16950568753147991165
20645477 70 18337389336388089586
21065198 57 18338231570579166525
21197605 99 18193278713588955434
21267235 1 18268996384725709206
21673915 165 18337105765035120791
221490 88 18409168805360546898
23522609 53 17916324839009104577
23559900 14 18340476790360367144
239999 70 18272374157523783662
3004659 81 18262799554234243746
338550 245 18335140920676577990
3545911 37 18409448085366415093
3633792 109 18336252454872558789
4073 2 18261115226425682883
4214541 1 18338795620218269357
4340502 62 18341886412376882048
46194498 28 17821452339775933300
5104073 3 18412821417284213923
77779 3 18410853256963231661
7970288 3 17833827175817601786
8272917 22 18412546496675431772
9709674 26 18334015012142896803

> <PUBCHEM_SHAPE_MULTIPOLES>
471.32
14.95
3.38
0.78
11.58
1.34
0.11
-0.91
1.48
-3.21
-0.09
0.64
-0.06
-0.35

> <PUBCHEM_SHAPE_SELFOVERLAP>
1016.727

> <PUBCHEM_SHAPE_VOLUME>
259.7

> <PUBCHEM_COORDINATE_TYPE>
2
5
10

$$$$
