5364491
  -OEChem-02172602473D

 27 26  0     0  0  0  0  0  0999 V2000
    1.9630    2.0517   -1.1844 Br  0  0  0  0  0  0  0  0  0  0  0  0
   -2.6139   -0.4964   -0.3235 C   0  0  0  0  0  0  0  0  0  0  0  0
   -1.6577   -1.6678   -0.0774 C   0  0  0  0  0  0  0  0  0  0  0  0
   -2.2395    0.7615    0.4636 C   0  0  0  0  0  0  0  0  0  0  0  0
    2.2121   -1.1158   -0.1518 C   0  0  0  0  0  0  0  0  0  0  0  0
   -0.2526   -1.3827   -0.5226 C   0  0  0  0  0  0  0  0  0  0  0  0
    2.8860    0.0195    0.6306 C   0  0  0  0  0  0  0  0  0  0  0  0
    0.8078   -1.3957    0.2988 C   0  0  0  0  0  0  0  0  0  0  0  0
   -3.2535    1.8742    0.2462 C   0  0  0  0  0  0  0  0  0  0  0  0
    2.1484    1.3514    0.6205 C   0  0  0  0  0  0  0  0  0  0  0  0
   -2.6426   -0.2628   -1.3955 H   0  0  0  0  0  0  0  0  0  0  0  0
   -3.6265   -0.8118   -0.0428 H   0  0  0  0  0  0  0  0  0  0  0  0
   -2.0205   -2.5416   -0.6318 H   0  0  0  0  0  0  0  0  0  0  0  0
   -1.6837   -1.9398    0.9850 H   0  0  0  0  0  0  0  0  0  0  0  0
   -2.1839    0.5289    1.5334 H   0  0  0  0  0  0  0  0  0  0  0  0
   -1.2533    1.1249    0.1566 H   0  0  0  0  0  0  0  0  0  0  0  0
    2.2465   -0.9096   -1.2276 H   0  0  0  0  0  0  0  0  0  0  0  0
    2.8012   -2.0296   -0.0041 H   0  0  0  0  0  0  0  0  0  0  0  0
   -0.1099   -1.1599   -1.5771 H   0  0  0  0  0  0  0  0  0  0  0  0
    3.8984    0.1583    0.2302 H   0  0  0  0  0  0  0  0  0  0  0  0
    3.0095   -0.2948    1.6750 H   0  0  0  0  0  0  0  0  0  0  0  0
    0.6670   -1.6297    1.3511 H   0  0  0  0  0  0  0  0  0  0  0  0
   -4.2509    1.5663    0.5759 H   0  0  0  0  0  0  0  0  0  0  0  0
   -2.9674    2.7640    0.8156 H   0  0  0  0  0  0  0  0  0  0  0  0
   -3.3108    2.1512   -0.8113 H   0  0  0  0  0  0  0  0  0  0  0  0
    1.1424    1.2786    1.0407 H   0  0  0  0  0  0  0  0  0  0  0  0
    2.7066    2.1061    1.1820 H   0  0  0  0  0  0  0  0  0  0  0  0
  1 10  1  0  0  0  0
  2  3  1  0  0  0  0
  2  4  1  0  0  0  0
  2 11  1  0  0  0  0
  2 12  1  0  0  0  0
  3  6  1  0  0  0  0
  3 13  1  0  0  0  0
  3 14  1  0  0  0  0
  4  9  1  0  0  0  0
  4 15  1  0  0  0  0
  4 16  1  0  0  0  0
  5  7  1  0  0  0  0
  5  8  1  0  0  0  0
  5 17  1  0  0  0  0
  5 18  1  0  0  0  0
  6  8  2  0  0  0  0
  6 19  1  0  0  0  0
  7 10  1  0  0  0  0
  7 20  1  0  0  0  0
  7 21  1  0  0  0  0
  8 22  1  0  0  0  0
  9 23  1  0  0  0  0
  9 24  1  0  0  0  0
  9 25  1  0  0  0  0
 10 26  1  0  0  0  0
 10 27  1  0  0  0  0
M  END
> <PUBCHEM_COMPOUND_CID>
5364491

> <PUBCHEM_CONFORMER_RMSD>
0.6

> <PUBCHEM_CONFORMER_DIVERSEORDER>
1
92
25
200
168
299
8
245
232
130
32
94
106
75
55
61
85
277
315
33
262
50
261
5
51
45
275
316
148
189
169
230
290
98
285
304
26
273
222
35
305
77
288
159
9
176
201
312
6
265
203
79
220
65
227
302
69
243
88
162
12
259
73
231
109
272
308
54
196
108
311
115
29
42
126
267
113
36
228
38
191
268
138
63
253
62
67
157
257
144
153
31
279
16
291
185
155
7
107
152
76
225
118
57
181
303
123
224
161
242
129
124
154
103
137
82
250
216
145
207
135
278
19
111
195
217
301
58
244
105
293
170
236
184
309
2
139
110
20
282
95
284
78
14
134
280
186
146
150
41
256
30
39
64
80
179
269
211
296
3
264
255
177
306
37
44
182
266
87
307
84
71
283
47
125
89
91
233
17
294
165
270
97
192
258
59
300
119
238
96
314
15
218
246
70
127
166
313
24
223
112
286
240
90
204
187
53
214
298
72
60
208
212
147
295
221
40
164
235
254
183
241
74
263
149
281
48
132
117
34
199
252
22
239
276
104
83
213
215
151
141
4
209
292
160
289
52
10
140
197
175
274
178
229
194
271
249
81
171
202
237
248
27
18
310
102
251
56
23
206
136
131
13
49
143
172
226
198
120
297
188
163
128
114
11
28
101
116
66
205
260
234
142
122
247
121
156
133
173
190
158
219
86
100
93
167
174
43
46
210
21
287
180
193
68
99

> <PUBCHEM_MMFF94_PARTIAL_CHARGES>
8
1 -0.23
10 0.23
19 0.15
22 0.15
3 0.14
5 0.14
6 -0.29
8 -0.29

> <PUBCHEM_EFFECTIVE_ROTOR_COUNT>
6

> <PUBCHEM_PHARMACOPHORE_FEATURES>
3
1 1 hydrophobe
1 9 hydrophobe
4 2 3 4 6 hydrophobe

> <PUBCHEM_HEAVY_ATOM_COUNT>
10

> <PUBCHEM_ATOM_DEF_STEREO_COUNT>
0

> <PUBCHEM_ATOM_UDEF_STEREO_COUNT>
0

> <PUBCHEM_BOND_DEF_STEREO_COUNT>
1

> <PUBCHEM_BOND_UDEF_STEREO_COUNT>
0

> <PUBCHEM_ISOTOPIC_ATOM_COUNT>
0

> <PUBCHEM_COMPONENT_COUNT>
1

> <PUBCHEM_CACTVS_TAUTO_COUNT>
1

> <PUBCHEM_CONFORMER_ID>
0051DB0B00000001

> <PUBCHEM_MMFF94_ENERGY>
-1.5257

> <PUBCHEM_FEATURE_SELFOVERLAP>
15.224

> <PUBCHEM_SHAPE_FINGERPRINT>
100427 49 15381348386553716494
10149128 111 18189618426547155284
10149128 76 18342736282613356305
12162725 195 18410287051287384891
12696612 119 18260829314948104852
13618510 140 18263083373788338116
14390081 3 18343578559949395227
15775835 57 18341900713673972448
19973954 147 18411138086214448386
20304884 271 18342175566090330259
20539926 19 18410867576294675132
20653085 51 18341622494430249723
20671657 1 18335143128653355558
21028194 46 18273215313303359963
22959321 28 18118699943556176475
22959321 54 18339354288020406429
23557571 272 17346034596819280871
58999712 105 18336554810920088932
58999712 78 18334855068996089812
66348 1 17617939136485158060

> <PUBCHEM_SHAPE_MULTIPOLES>
211.74
5.37
2.52
0.95
1.72
0.71
0.12
2.32
-0.55
0.14
0.38
-0.43
0.32
-0.74

> <PUBCHEM_SHAPE_SELFOVERLAP>
365.469

> <PUBCHEM_SHAPE_VOLUME>
141

> <PUBCHEM_COORDINATE_TYPE>
2
5
10

$$$$
