5362795
  -OEChem-02172602483D

 43 42  0     0  0  0  0  0  0999 V2000
   -7.8074   -1.4053   -0.1617 O   0  0  0  0  0  0  0  0  0  0  0  0
   -2.9765   -0.1765    0.3233 C   0  0  0  0  0  0  0  0  0  0  0  0
   -1.9610    0.9673    0.3402 C   0  0  0  0  0  0  0  0  0  0  0  0
    4.1926    0.1766   -0.3865 C   0  0  0  0  0  0  0  0  0  0  0  0
    2.8048   -0.3514   -0.7754 C   0  0  0  0  0  0  0  0  0  0  0  0
   -4.4097    0.2876    0.0455 C   0  0  0  0  0  0  0  0  0  0  0  0
    5.1860   -0.9318   -0.0286 C   0  0  0  0  0  0  0  0  0  0  0  0
   -0.5481    0.4534    0.6290 C   0  0  0  0  0  0  0  0  0  0  0  0
    1.8010    0.7145   -1.2308 C   0  0  0  0  0  0  0  0  0  0  0  0
   -5.4835   -0.8062    0.0878 C   0  0  0  0  0  0  0  0  0  0  0  0
    6.5894   -0.4037    0.2802 C   0  0  0  0  0  0  0  0  0  0  0  0
    0.4303    1.5896    0.6749 C   0  0  0  0  0  0  0  0  0  0  0  0
    1.4785    1.7085   -0.1531 C   0  0  0  0  0  0  0  0  0  0  0  0
   -6.8971   -0.3166   -0.2032 C   0  0  0  0  0  0  0  0  0  0  0  0
    7.6008   -1.5061    0.5582 C   0  0  0  0  0  0  0  0  0  0  0  0
   -2.6874   -0.9124   -0.4371 H   0  0  0  0  0  0  0  0  0  0  0  0
   -2.9526   -0.6944    1.2901 H   0  0  0  0  0  0  0  0  0  0  0  0
   -1.9778    1.4813   -0.6292 H   0  0  0  0  0  0  0  0  0  0  0  0
   -2.2547    1.7034    1.0992 H   0  0  0  0  0  0  0  0  0  0  0  0
    4.1034    0.8594    0.4667 H   0  0  0  0  0  0  0  0  0  0  0  0
    4.5950    0.7629   -1.2218 H   0  0  0  0  0  0  0  0  0  0  0  0
    2.3853   -0.9142    0.0682 H   0  0  0  0  0  0  0  0  0  0  0  0
    2.9250   -1.0705   -1.5958 H   0  0  0  0  0  0  0  0  0  0  0  0
   -4.4377    0.7696   -0.9399 H   0  0  0  0  0  0  0  0  0  0  0  0
   -4.6766    1.0618    0.7761 H   0  0  0  0  0  0  0  0  0  0  0  0
    4.8096   -1.4922    0.8359 H   0  0  0  0  0  0  0  0  0  0  0  0
    5.2473   -1.6406   -0.8636 H   0  0  0  0  0  0  0  0  0  0  0  0
   -0.2864   -0.3326   -0.0829 H   0  0  0  0  0  0  0  0  0  0  0  0
   -0.5390   -0.0283    1.6153 H   0  0  0  0  0  0  0  0  0  0  0  0
    2.2300    1.2685   -2.0760 H   0  0  0  0  0  0  0  0  0  0  0  0
    0.9063    0.2366   -1.6413 H   0  0  0  0  0  0  0  0  0  0  0  0
   -5.2263   -1.5957   -0.6299 H   0  0  0  0  0  0  0  0  0  0  0  0
   -5.4709   -1.2928    1.0715 H   0  0  0  0  0  0  0  0  0  0  0  0
    6.9476    0.1952   -0.5656 H   0  0  0  0  0  0  0  0  0  0  0  0
    6.5431    0.2657    1.1473 H   0  0  0  0  0  0  0  0  0  0  0  0
    0.2791    2.3511    1.4357 H   0  0  0  0  0  0  0  0  0  0  0  0
    2.1446    2.5593   -0.0374 H   0  0  0  0  0  0  0  0  0  0  0  0
   -6.9479    0.1395   -1.1971 H   0  0  0  0  0  0  0  0  0  0  0  0
   -7.2070    0.4247    0.5403 H   0  0  0  0  0  0  0  0  0  0  0  0
    7.7019   -2.1700   -0.3061 H   0  0  0  0  0  0  0  0  0  0  0  0
    8.5832   -1.0752    0.7743 H   0  0  0  0  0  0  0  0  0  0  0  0
    7.2944   -2.1077    1.4197 H   0  0  0  0  0  0  0  0  0  0  0  0
   -8.6909   -1.0464   -0.3522 H   0  0  0  0  0  0  0  0  0  0  0  0
  1 14  1  0  0  0  0
  1 43  1  0  0  0  0
  2  3  1  0  0  0  0
  2  6  1  0  0  0  0
  2 16  1  0  0  0  0
  2 17  1  0  0  0  0
  3  8  1  0  0  0  0
  3 18  1  0  0  0  0
  3 19  1  0  0  0  0
  4  5  1  0  0  0  0
  4  7  1  0  0  0  0
  4 20  1  0  0  0  0
  4 21  1  0  0  0  0
  5  9  1  0  0  0  0
  5 22  1  0  0  0  0
  5 23  1  0  0  0  0
  6 10  1  0  0  0  0
  6 24  1  0  0  0  0
  6 25  1  0  0  0  0
  7 11  1  0  0  0  0
  7 26  1  0  0  0  0
  7 27  1  0  0  0  0
  8 12  1  0  0  0  0
  8 28  1  0  0  0  0
  8 29  1  0  0  0  0
  9 13  1  0  0  0  0
  9 30  1  0  0  0  0
  9 31  1  0  0  0  0
 10 14  1  0  0  0  0
 10 32  1  0  0  0  0
 10 33  1  0  0  0  0
 11 15  1  0  0  0  0
 11 34  1  0  0  0  0
 11 35  1  0  0  0  0
 12 13  2  0  0  0  0
 12 36  1  0  0  0  0
 13 37  1  0  0  0  0
 14 38  1  0  0  0  0
 14 39  1  0  0  0  0
 15 40  1  0  0  0  0
 15 41  1  0  0  0  0
 15 42  1  0  0  0  0
M  END
> <PUBCHEM_COMPOUND_CID>
5362795

> <PUBCHEM_CONFORMER_RMSD>
1.2

> <PUBCHEM_CONFORMER_DIVERSEORDER>
2
43
23
36
8
52
42
17
4
16
54
45
31
18
38
10
49
69
44
65
1
24
14
29
3
50
5
27
28
60
9
41
13
30
32
56
46
61
12
48
20
33
34
58
53
26
25
62
22
47
70
68
40
19
15
71
11
57
55
51
7
37
21
63
6
35
64
59
67
72
39
66

> <PUBCHEM_MMFF94_PARTIAL_CHARGES>
9
1 -0.68
12 -0.29
13 -0.29
14 0.28
36 0.15
37 0.15
43 0.4
8 0.14
9 0.14

> <PUBCHEM_EFFECTIVE_ROTOR_COUNT>
11

> <PUBCHEM_PHARMACOPHORE_FEATURES>
7
1 1 acceptor
1 1 donor
1 15 hydrophobe
3 2 6 10 hydrophobe
3 3 8 12 hydrophobe
3 4 7 11 hydrophobe
3 5 9 13 hydrophobe

> <PUBCHEM_HEAVY_ATOM_COUNT>
15

> <PUBCHEM_ATOM_DEF_STEREO_COUNT>
0

> <PUBCHEM_ATOM_UDEF_STEREO_COUNT>
0

> <PUBCHEM_BOND_DEF_STEREO_COUNT>
1

> <PUBCHEM_BOND_UDEF_STEREO_COUNT>
0

> <PUBCHEM_ISOTOPIC_ATOM_COUNT>
0

> <PUBCHEM_COMPONENT_COUNT>
1

> <PUBCHEM_CACTVS_TAUTO_COUNT>
1

> <PUBCHEM_CONFORMER_ID>
0051D46B00000002

> <PUBCHEM_MMFF94_ENERGY>
1.6395

> <PUBCHEM_FEATURE_SELFOVERLAP>
35.536

> <PUBCHEM_SHAPE_FINGERPRINT>
100836 57 8718826483375586376
10354089 29 13039185901445359674
106641 1 16343698854809850250
10670039 82 15647325317621716629
10753850 27 18334293154498863546
11724838 91 11599998856529437993
13177829 20 15267337439945688110
13403585 85 14979965735847898803
13668630 136 18187083944670781330
14251752 14 17967529060943066061
14251757 52 9367339328460294774
14251764 18 18342181080580704209
15048467 5 9655575210158205664
15183329 4 15791728581543306488
15188451 53 18334293129293555738
15690457 1 18341890800931807150
17834072 8 14634873041844364564
20281389 69 10447930551412938206
20526848 3 9223231853507203778
20621476 66 9871457730319744474
20621476 8 18113335302820050181
20735858 18 17203608177331457478
21095086 128 16805328816991779979
21130983 4 10375871878952895723
221357 26 15285355128489699454
22224240 67 15123503709851173628
23253445 4 14908183044753637793
23402539 116 18114182990902278820
23559900 14 18188772893774346097
293599 30 8862937265237002704
3014063 24 18188207599074736258
59682541 35 17561075930614174194
59682541 52 15574717980781681550
6438161 24 18409726287999870451

> <PUBCHEM_SHAPE_MULTIPOLES>
302.82
21.85
1.48
0.87
7.89
0.21
0.1
-15.26
-1.03
-0.42
-0.13
-0.47
0.1
-0.69

> <PUBCHEM_SHAPE_SELFOVERLAP>
544.487

> <PUBCHEM_SHAPE_VOLUME>
194.7

> <PUBCHEM_COORDINATE_TYPE>
2
5
10

$$$$
