102431713
  -OEChem-02172602433D

 46 50  0     0  0  0  0  0  0999 V2000
   -4.9154   -1.1107   -0.3108 O   0  0  0  0  0  0  0  0  0  0  0  0
    4.6308   -2.6500    0.2888 O   0  0  0  0  0  0  0  0  0  0  0  0
    1.4749   -0.9508    0.0040 N   0  0  0  0  0  0  0  0  0  0  0  0
    2.4817   -3.4676    0.2211 N   0  0  0  0  0  0  0  0  0  0  0  0
    5.7880    1.0016    0.1120 N   0  0  0  0  0  0  0  0  0  0  0  0
    3.7018   -0.0196    0.0648 C   0  0  0  0  0  0  0  0  0  0  0  0
    2.8458   -1.0509    0.0858 C   0  0  0  0  0  0  0  0  0  0  0  0
    3.4679    1.4082   -0.0409 C   0  0  0  0  0  0  0  0  0  0  0  0
    0.6240   -2.0345    0.0226 C   0  0  0  0  0  0  0  0  0  0  0  0
    4.7574    1.9703   -0.0071 C   0  0  0  0  0  0  0  0  0  0  0  0
   -0.8286   -1.7935   -0.0639 C   0  0  0  0  0  0  0  0  0  0  0  0
    3.4220   -2.4428    0.2076 C   0  0  0  0  0  0  0  0  0  0  0  0
    5.1735   -0.1481    0.1533 C   0  0  0  0  0  0  0  0  0  0  0  0
    1.1234   -3.2767    0.1326 C   0  0  0  0  0  0  0  0  0  0  0  0
    2.3324    2.1870   -0.1530 C   0  0  0  0  0  0  0  0  0  0  0  0
    4.9268    3.3427   -0.0868 C   0  0  0  0  0  0  0  0  0  0  0  0
   -1.5662   -2.3462   -1.1109 C   0  0  0  0  0  0  0  0  0  0  0  0
   -1.4647   -1.0117    0.9005 C   0  0  0  0  0  0  0  0  0  0  0  0
    2.5022    3.5709   -0.2335 C   0  0  0  0  0  0  0  0  0  0  0  0
    3.7865    4.1435   -0.2008 C   0  0  0  0  0  0  0  0  0  0  0  0
   -3.5754   -1.3350   -0.2294 C   0  0  0  0  0  0  0  0  0  0  0  0
   -2.9396   -2.1170   -1.1937 C   0  0  0  0  0  0  0  0  0  0  0  0
   -2.8380   -0.7823    0.8178 C   0  0  0  0  0  0  0  0  0  0  0  0
   -5.3654    0.1827   -0.1047 C   0  0  0  0  0  0  0  0  0  0  0  0
   -4.7104    1.2543   -0.7116 C   0  0  0  0  0  0  0  0  0  0  0  0
   -6.4735    0.4139    0.7104 C   0  0  0  0  0  0  0  0  0  0  0  0
   -5.1635    2.5571   -0.5036 C   0  0  0  0  0  0  0  0  0  0  0  0
   -6.9268    1.7167    0.9182 C   0  0  0  0  0  0  0  0  0  0  0  0
   -6.2716    2.7881    0.3113 C   0  0  0  0  0  0  0  0  0  0  0  0
    1.0477   -0.0434   -0.0858 H   0  0  0  0  0  0  0  0  0  0  0  0
    5.7663   -1.0510    0.2439 H   0  0  0  0  0  0  0  0  0  0  0  0
    0.5200   -4.1758    0.1622 H   0  0  0  0  0  0  0  0  0  0  0  0
    1.3265    1.7958   -0.1816 H   0  0  0  0  0  0  0  0  0  0  0  0
    2.8113   -4.4251    0.3027 H   0  0  0  0  0  0  0  0  0  0  0  0
    5.9144    3.7906   -0.0620 H   0  0  0  0  0  0  0  0  0  0  0  0
   -1.0880   -2.9538   -1.8754 H   0  0  0  0  0  0  0  0  0  0  0  0
   -0.9067   -0.5794    1.7277 H   0  0  0  0  0  0  0  0  0  0  0  0
    1.6321    4.2163   -0.3224 H   0  0  0  0  0  0  0  0  0  0  0  0
    3.8920    5.2234   -0.2650 H   0  0  0  0  0  0  0  0  0  0  0  0
   -3.5087   -2.5486   -2.0125 H   0  0  0  0  0  0  0  0  0  0  0  0
   -3.3107   -0.1890    1.5960 H   0  0  0  0  0  0  0  0  0  0  0  0
   -3.8585    1.1013   -1.3688 H   0  0  0  0  0  0  0  0  0  0  0  0
   -6.9872   -0.4170    1.1860 H   0  0  0  0  0  0  0  0  0  0  0  0
   -4.6567    3.3912   -0.9801 H   0  0  0  0  0  0  0  0  0  0  0  0
   -7.7897    1.8967    1.5526 H   0  0  0  0  0  0  0  0  0  0  0  0
   -6.6251    3.8024    0.4723 H   0  0  0  0  0  0  0  0  0  0  0  0
  1 21  1  0  0  0  0
  1 24  1  0  0  0  0
  2 12  2  0  0  0  0
  3  7  1  0  0  0  0
  3  9  1  0  0  0  0
  3 30  1  0  0  0  0
  4 12  1  0  0  0  0
  4 14  1  0  0  0  0
  4 34  1  0  0  0  0
  5 10  1  0  0  0  0
  5 13  2  0  0  0  0
  6  7  2  3  0  0  0
  6  8  1  0  0  0  0
  6 13  1  0  0  0  0
  7 12  1  0  0  0  0
  8 10  1  0  0  0  0
  8 15  2  0  0  0  0
  9 11  1  0  0  0  0
  9 14  2  0  0  0  0
 10 16  2  0  0  0  0
 11 17  2  0  0  0  0
 11 18  1  0  0  0  0
 13 31  1  0  0  0  0
 14 32  1  0  0  0  0
 15 19  1  0  0  0  0
 15 33  1  0  0  0  0
 16 20  1  0  0  0  0
 16 35  1  0  0  0  0
 17 22  1  0  0  0  0
 17 36  1  0  0  0  0
 18 23  2  0  0  0  0
 18 37  1  0  0  0  0
 19 20  2  0  0  0  0
 19 38  1  0  0  0  0
 20 39  1  0  0  0  0
 21 22  2  0  0  0  0
 21 23  1  0  0  0  0
 22 40  1  0  0  0  0
 23 41  1  0  0  0  0
 24 25  2  0  0  0  0
 24 26  1  0  0  0  0
 25 27  1  0  0  0  0
 25 42  1  0  0  0  0
 26 28  2  0  0  0  0
 26 43  1  0  0  0  0
 27 29  2  0  0  0  0
 27 44  1  0  0  0  0
 28 29  1  0  0  0  0
 28 45  1  0  0  0  0
 29 46  1  0  0  0  0
M  END
> <PUBCHEM_COMPOUND_CID>
102431713

> <PUBCHEM_CONFORMER_RMSD>
0.8

> <PUBCHEM_CONFORMER_DIVERSEORDER>
1
8
3
5
4
7
2
6

> <PUBCHEM_MMFF94_PARTIAL_CHARGES>
46
1 -0.17
10 0.18
11 0.03
12 0.62
13 0.38
14 -0.04
15 -0.15
16 -0.15
17 -0.15
18 -0.15
19 -0.15
2 -0.57
20 -0.15
21 0.08
22 -0.15
23 -0.15
24 0.08
25 -0.15
26 -0.15
27 -0.15
28 -0.15
29 -0.15
3 -0.6
30 0.4
31 0.06
32 0.15
33 0.15
34 0.37
35 0.15
36 0.15
37 0.15
38 0.15
39 0.15
4 -0.54
40 0.15
41 0.15
42 0.15
43 0.15
44 0.15
45 0.15
46 0.15
5 -0.63
6 -0.01
7 0.11
8 0.03
9 0.07

> <PUBCHEM_EFFECTIVE_ROTOR_COUNT>
3.4

> <PUBCHEM_PHARMACOPHORE_FEATURES>
11
1 1 acceptor
1 2 acceptor
1 3 cation
1 3 donor
1 4 donor
1 5 acceptor
5 5 6 8 10 13 rings
6 11 17 18 21 22 23 rings
6 24 25 26 27 28 29 rings
6 3 4 7 9 12 14 rings
6 8 10 15 16 19 20 rings

> <PUBCHEM_HEAVY_ATOM_COUNT>
29

> <PUBCHEM_ATOM_DEF_STEREO_COUNT>
0

> <PUBCHEM_ATOM_UDEF_STEREO_COUNT>
0

> <PUBCHEM_BOND_DEF_STEREO_COUNT>
0

> <PUBCHEM_BOND_UDEF_STEREO_COUNT>
1

> <PUBCHEM_ISOTOPIC_ATOM_COUNT>
0

> <PUBCHEM_COMPONENT_COUNT>
1

> <PUBCHEM_CACTVS_TAUTO_COUNT>
32

> <PUBCHEM_CONFORMER_ID>
061AFBE100000001

> <PUBCHEM_MMFF94_ENERGY>
121.9021

> <PUBCHEM_FEATURE_SELFOVERLAP>
55.926

> <PUBCHEM_SHAPE_FINGERPRINT>
10050765 1 18410857693749675907
100830 2 17987534628051478929
10411042 1 18049722915650983842
10439779 11 18051964016321171032
10595046 47 18268986652119040975
10673678 19 18343588421784877715
10675989 125 18411420639819151704
10763959 59 18409737253040567958
10917259 69 17975422618857050644
11070050 100 16805601443222966579
11101153 10 18339919416308438599
11456790 92 17968657112739658186
11479125 193 18193565690397498761
12107183 9 18339072705691086770
12422481 6 17458338646029948941
12788726 201 17346322540528488473
12925494 130 18409165541507070953
13617811 41 17476621548910319479
13785724 45 17979634533652684626
13878862 14 18190439632783774421
13944108 23 18336836308036424100
14251764 75 18341056293466173041
14400156 260 18334576829353625720
14429114 114 18196930200252386681
14790565 3 18338517572266556924
15064981 113 17131290042383578692
15082195 135 18268969004129810615
15142526 21 18260265278537406235
15183329 4 18410289224926127521
15320295 198 18116995477918160909
15320467 1 17041478311426435557
15419008 145 18188758479811463880
15439362 3 18340209704500050598
15840311 113 18337678512715954973
16087824 20 18409450259495683580
16112460 7 18268718220662609281
16760501 71 18409451362958828553
19302320 297 18335140899296972840
20511986 3 17917141801495585776
20691028 202 18271523097064747929
20715895 44 18412262843865595504
21298829 104 18341047501784162856
21315764 268 18262515867565465461
22122407 14 18410303492912551635
23569914 2 17390463568744999349
245318 6 17969797464673472581
24771293 8 18198882835100101946
2838139 119 18410852166341978645
338550 245 18334577987834850396
3388396 114 16614750748978698628
3472631 163 18272373087676156279
397830 11 18187942694261202275
4066623 53 17912100352252656214
4144715 1 18260842470955691899
437795 96 17969774182357939789
474 4 18338796844442535634
5104073 3 18113898269173126219
550186 72 17616536593819984739
57724786 102 18411979135622019759
5951187 136 18271537446096400830

> <PUBCHEM_SHAPE_MULTIPOLES>
570.12
16.94
5.14
0.85
17.19
2
0.05
13.55
-1.73
-4.71
0.39
0.79
-0.14
-1.15

> <PUBCHEM_SHAPE_SELFOVERLAP>
1286.674

> <PUBCHEM_SHAPE_VOLUME>
298.1

> <PUBCHEM_COORDINATE_TYPE>
2
5
10

$$$$
