5318536
  -OEChem-02172602423D

 43 44  0     1  0  0  0  0  0999 V2000
    3.7465   -2.2795    0.1149 O   0  0  0  0  0  0  0  0  0  0  0  0
   -3.2565   -0.8352   -0.8853 O   0  0  0  0  0  0  0  0  0  0  0  0
   -4.0015    1.3516   -0.8410 O   0  0  0  0  0  0  0  0  0  0  0  0
    4.8845   -0.1204    0.1570 C   0  0  1  0  0  0  0  0  0  0  0  0
    4.2696    1.2966    0.0873 C   0  0  0  0  0  0  0  0  0  0  0  0
    2.7952    1.0598    0.1719 C   0  0  0  0  0  0  0  0  0  0  0  0
    2.4637   -0.2890    0.1954 C   0  0  0  0  0  0  0  0  0  0  0  0
    3.6941   -1.0629    0.1476 C   0  0  0  0  0  0  0  0  0  0  0  0
    1.1595   -0.7436    0.2542 C   0  0  0  0  0  0  0  0  0  0  0  0
    0.1481    0.2159    0.2934 C   0  0  0  0  0  0  0  0  0  0  0  0
    1.7914    2.0142    0.2084 C   0  0  0  0  0  0  0  0  0  0  0  0
    0.4613    1.5854    0.2710 C   0  0  0  0  0  0  0  0  0  0  0  0
    5.8245   -0.4080   -1.0018 C   0  0  0  0  0  0  0  0  0  0  0  0
   -1.2844   -0.2142    0.3584 C   0  0  0  0  0  0  0  0  0  0  0  0
    0.8360   -2.1983    0.2787 C   0  0  0  0  0  0  0  0  0  0  0  0
   -0.6214    2.6156    0.3114 C   0  0  0  0  0  0  0  0  0  0  0  0
   -1.9123   -0.3932   -1.0248 C   0  0  0  0  0  0  0  0  0  0  0  0
   -4.1997    0.1475   -0.8049 C   0  0  0  0  0  0  0  0  0  0  0  0
   -5.5219   -0.4996   -0.6641 C   0  0  0  0  0  0  0  0  0  0  0  0
   -6.0045   -0.7769    0.5541 C   0  0  0  0  0  0  0  0  0  0  0  0
   -5.2721   -0.4658    1.8182 C   0  0  0  0  0  0  0  0  0  0  0  0
    5.4102   -0.2467    1.1111 H   0  0  0  0  0  0  0  0  0  0  0  0
    4.5201    1.8098   -0.8474 H   0  0  0  0  0  0  0  0  0  0  0  0
    4.6134    1.9049    0.9306 H   0  0  0  0  0  0  0  0  0  0  0  0
    2.0435    3.0700    0.1869 H   0  0  0  0  0  0  0  0  0  0  0  0
    6.6555    0.3043   -1.0147 H   0  0  0  0  0  0  0  0  0  0  0  0
    6.2426   -1.4171   -0.9211 H   0  0  0  0  0  0  0  0  0  0  0  0
    5.3034   -0.3465   -1.9637 H   0  0  0  0  0  0  0  0  0  0  0  0
   -1.8801    0.5043    0.9341 H   0  0  0  0  0  0  0  0  0  0  0  0
   -1.4132   -1.1228    0.9593 H   0  0  0  0  0  0  0  0  0  0  0  0
    1.4693   -2.7509   -0.4225 H   0  0  0  0  0  0  0  0  0  0  0  0
    0.9867   -2.5997    1.2859 H   0  0  0  0  0  0  0  0  0  0  0  0
   -0.1781   -2.4461   -0.0399 H   0  0  0  0  0  0  0  0  0  0  0  0
   -1.1466    2.5895    1.2716 H   0  0  0  0  0  0  0  0  0  0  0  0
   -0.2133    3.6270    0.2016 H   0  0  0  0  0  0  0  0  0  0  0  0
   -1.3333    2.4801   -0.5071 H   0  0  0  0  0  0  0  0  0  0  0  0
   -1.3803   -1.1658   -1.5907 H   0  0  0  0  0  0  0  0  0  0  0  0
   -1.8509    0.5175   -1.6323 H   0  0  0  0  0  0  0  0  0  0  0  0
   -6.0711   -0.7362   -1.5672 H   0  0  0  0  0  0  0  0  0  0  0  0
   -6.9758   -1.2552    0.6405 H   0  0  0  0  0  0  0  0  0  0  0  0
   -5.9030    0.1605    2.4574 H   0  0  0  0  0  0  0  0  0  0  0  0
   -4.3233    0.0579    1.6835 H   0  0  0  0  0  0  0  0  0  0  0  0
   -5.0661   -1.3953    2.3587 H   0  0  0  0  0  0  0  0  0  0  0  0
  1  8  2  0  0  0  0
  2 17  1  0  0  0  0
  2 18  1  0  0  0  0
  3 18  2  0  0  0  0
  4  5  1  0  0  0  0
  4  8  1  0  0  0  0
  4 13  1  0  0  0  0
  4 22  1  0  0  0  0
  5  6  1  0  0  0  0
  5 23  1  0  0  0  0
  5 24  1  0  0  0  0
  6  7  2  0  0  0  0
  6 11  1  0  0  0  0
  7  8  1  0  0  0  0
  7  9  1  0  0  0  0
  9 10  2  0  0  0  0
  9 15  1  0  0  0  0
 10 12  1  0  0  0  0
 10 14  1  0  0  0  0
 11 12  2  0  0  0  0
 11 25  1  0  0  0  0
 12 16  1  0  0  0  0
 13 26  1  0  0  0  0
 13 27  1  0  0  0  0
 13 28  1  0  0  0  0
 14 17  1  0  0  0  0
 14 29  1  0  0  0  0
 14 30  1  0  0  0  0
 15 31  1  0  0  0  0
 15 32  1  0  0  0  0
 15 33  1  0  0  0  0
 16 34  1  0  0  0  0
 16 35  1  0  0  0  0
 16 36  1  0  0  0  0
 17 37  1  0  0  0  0
 17 38  1  0  0  0  0
 18 19  1  0  0  0  0
 19 20  2  0  0  0  0
 19 39  1  0  0  0  0
 20 21  1  0  0  0  0
 20 40  1  0  0  0  0
 21 41  1  0  0  0  0
 21 42  1  0  0  0  0
 21 43  1  0  0  0  0
M  END
> <PUBCHEM_COMPOUND_CID>
5318536

> <PUBCHEM_CONFORMER_RMSD>
0.8

> <PUBCHEM_CONFORMER_DIVERSEORDER>
4
1
14
24
39
52
44
22
46
41
2
10
42
9
58
27
56
55
11
25
37
15
47
35
50
26
17
53
16
29
34
19
30
54
18
12
43
51
20
3
33
13
48
8
28
7
31
23
57
21
32
38
49
45
5
40
6
36

> <PUBCHEM_MMFF94_PARTIAL_CHARGES>
23
1 -0.57
10 -0.14
11 -0.15
12 -0.14
14 0.14
15 0.14
16 0.14
17 0.28
18 0.71
19 -0.14
2 -0.43
20 -0.29
21 0.14
25 0.15
3 -0.57
39 0.15
4 0.06
40 0.15
5 0.14
6 -0.14
7 0.09
8 0.42
9 -0.14

> <PUBCHEM_EFFECTIVE_ROTOR_COUNT>
5.4

> <PUBCHEM_PHARMACOPHORE_FEATURES>
5
1 1 acceptor
1 21 hydrophobe
1 3 acceptor
5 4 5 6 7 8 rings
6 6 7 9 10 11 12 rings

> <PUBCHEM_HEAVY_ATOM_COUNT>
21

> <PUBCHEM_ATOM_DEF_STEREO_COUNT>
0

> <PUBCHEM_ATOM_UDEF_STEREO_COUNT>
1

> <PUBCHEM_BOND_DEF_STEREO_COUNT>
1

> <PUBCHEM_BOND_UDEF_STEREO_COUNT>
0

> <PUBCHEM_ISOTOPIC_ATOM_COUNT>
0

> <PUBCHEM_COMPONENT_COUNT>
1

> <PUBCHEM_CACTVS_TAUTO_COUNT>
2

> <PUBCHEM_CONFORMER_ID>
0051278800000004

> <PUBCHEM_MMFF94_ENERGY>
59.3501

> <PUBCHEM_FEATURE_SELFOVERLAP>
25.451

> <PUBCHEM_SHAPE_FINGERPRINT>
10366900 7 17822279215943914129
10673678 19 17387148648492319516
11287383 113 17095243643838912117
12236239 1 17632300098763703051
12553582 1 18270665524268648599
12596602 18 17346314955663501731
12730499 353 18259989292681581474
12788726 201 18341046307424337936
13590594 115 18202289104189046921
13862211 1 18411694379200630554
14341114 176 18408044031056499349
15081414 286 18341611576750431992
15142383 8 18410012092372349633
15196674 1 18411131399156168373
15537594 2 18343299271074219318
15788980 27 18410851066809173799
16945 1 18410015459979767480
17492 89 18123466082040456526
17844677 252 18408325488648067413
18785283 64 17825109456857048821
19141452 34 17489302027080796742
19784866 140 18336542737745544026
200 152 18273209785659311976
20612939 158 18338797917756883877
20645477 70 18411415086125497470
21267235 1 18341618101052862438
21623969 137 18334863835230381283
21641784 216 18115039519213996228
221357 26 18409719669529153109
221490 88 18264768951036425171
23402539 116 18343009004815944062
23559900 14 18270955864991866104
25147074 1 18192434070279252832
2748010 2 17906455777419669248
2871803 45 18411417294123328732
4340502 62 16877936157731512890
46194498 28 17675925417514168820
465052 167 18202848764112473494
5104073 3 18339072679636356089
59755656 215 18409451367096008302
7495541 125 16950565518752747485
8863177 126 18116158946900314627
9981440 41 16762511874810234601

> <PUBCHEM_SHAPE_MULTIPOLES>
414.56
13.3
2.08
1.02
9.95
0.52
-0.09
-3.38
0.54
-1.29
-0.2
1.21
-0.1
0.36

> <PUBCHEM_SHAPE_SELFOVERLAP>
874.819

> <PUBCHEM_SHAPE_VOLUME>
236.9

> <PUBCHEM_COORDINATE_TYPE>
2
5
10

$$$$
