12301145
  -OEChem-02172602423D

 23 24  0     1  0  0  0  0  0999 V2000
   -3.8660   -2.1993    0.7642 I   0  0  0  0  0  0  0  0  0  0  0  0
    5.6536    0.1721    0.3728 Br  0  0  0  0  0  0  0  0  0  0  0  0
   -1.4316   -0.1773    1.1018 S   0  0  0  0  0  0  0  0  0  0  0  0
   -2.7706   -0.3235   -1.5639 S   0  0  0  0  0  0  0  0  0  0  0  0
   -4.1833    0.9609    0.7495 S   0  0  0  0  0  0  0  0  0  0  0  0
   -0.4432   -0.1740   -0.3206 C   0  0  0  0  0  0  0  0  0  0  0  0
    1.0109   -0.0912   -0.1535 C   0  0  0  0  0  0  0  0  0  0  0  0
   -3.0279   -0.3387    0.2395 C   0  0  1  0  0  0  0  0  0  0  0  0
   -1.0436   -0.2362   -1.5152 C   0  0  0  0  0  0  0  0  0  0  0  0
    1.6374    1.1539   -0.1040 C   0  0  0  0  0  0  0  0  0  0  0  0
    1.7680   -1.2578   -0.0457 C   0  0  0  0  0  0  0  0  0  0  0  0
    3.0212    1.2326    0.0532 C   0  0  0  0  0  0  0  0  0  0  0  0
    3.1518   -1.1792    0.1116 C   0  0  0  0  0  0  0  0  0  0  0  0
    3.7785    0.0661    0.1611 C   0  0  0  0  0  0  0  0  0  0  0  0
   -3.2553    2.3916    0.1494 C   0  0  0  0  0  0  0  0  0  0  0  0
   -0.4917   -0.2325   -2.4480 H   0  0  0  0  0  0  0  0  0  0  0  0
    1.0615    2.0726   -0.1874 H   0  0  0  0  0  0  0  0  0  0  0  0
    1.2947   -2.2361   -0.0831 H   0  0  0  0  0  0  0  0  0  0  0  0
    3.4940    2.2106    0.0894 H   0  0  0  0  0  0  0  0  0  0  0  0
    3.7271   -2.0977    0.1938 H   0  0  0  0  0  0  0  0  0  0  0  0
   -3.1669    2.4067   -0.9389 H   0  0  0  0  0  0  0  0  0  0  0  0
   -2.2704    2.4831    0.6117 H   0  0  0  0  0  0  0  0  0  0  0  0
   -3.8174    3.2885    0.4293 H   0  0  0  0  0  0  0  0  0  0  0  0
  1  8  1  0  0  0  0
  2 14  1  0  0  0  0
  3  6  1  0  0  0  0
  3  8  1  0  0  0  0
  4  8  1  0  0  0  0
  4  9  1  0  0  0  0
  5  8  1  0  0  0  0
  5 15  1  0  0  0  0
  6  7  1  0  0  0  0
  6  9  2  0  0  0  0
  7 10  2  0  0  0  0
  7 11  1  0  0  0  0
  9 16  1  0  0  0  0
 10 12  1  0  0  0  0
 10 17  1  0  0  0  0
 11 13  2  0  0  0  0
 11 18  1  0  0  0  0
 12 14  2  0  0  0  0
 12 19  1  0  0  0  0
 13 14  1  0  0  0  0
 13 20  1  0  0  0  0
 15 21  1  0  0  0  0
 15 22  1  0  0  0  0
 15 23  1  0  0  0  0
M  END
> <PUBCHEM_COMPOUND_CID>
12301145

> <PUBCHEM_CONFORMER_RMSD>
0.6

> <PUBCHEM_CONFORMER_DIVERSEORDER>
2
10
9
1
5
7
4
3
6
8

> <PUBCHEM_MMFF94_PARTIAL_CHARGES>
20
1 -0.19
10 -0.15
11 -0.15
12 -0.15
13 -0.15
14 0.11
15 0.23
16 0.15
17 0.15
18 0.15
19 0.15
2 -0.11
20 0.15
3 -0.33
4 -0.33
5 -0.46
6 0.07
7 0.03
8 0.88
9 -0.05

> <PUBCHEM_EFFECTIVE_ROTOR_COUNT>
2.6

> <PUBCHEM_PHARMACOPHORE_FEATURES>
5
1 1 hydrophobe
1 15 hydrophobe
1 2 hydrophobe
5 3 4 6 8 9 rings
6 7 10 11 12 13 14 rings

> <PUBCHEM_HEAVY_ATOM_COUNT>
15

> <PUBCHEM_ATOM_DEF_STEREO_COUNT>
0

> <PUBCHEM_ATOM_UDEF_STEREO_COUNT>
1

> <PUBCHEM_BOND_DEF_STEREO_COUNT>
0

> <PUBCHEM_BOND_UDEF_STEREO_COUNT>
0

> <PUBCHEM_ISOTOPIC_ATOM_COUNT>
0

> <PUBCHEM_COMPONENT_COUNT>
1

> <PUBCHEM_CACTVS_TAUTO_COUNT>
1

> <PUBCHEM_CONFORMER_ID>
00BBB35900000002

> <PUBCHEM_MMFF94_ENERGY>
32.4125

> <PUBCHEM_FEATURE_SELFOVERLAP>
25.373

> <PUBCHEM_SHAPE_FINGERPRINT>
10680689 15 17918273172863663862
12236239 1 17846778516231852334
12251169 10 18334019380424966221
12403814 3 17989489649908479019
12507557 5 18408600396192384504
12507560 40 18201729418167416583
12916754 54 17823136890209954799
12932764 1 17489303126724156307
13214271 11 18413952788979241549
13296909 8 18334020506038720065
13583140 156 18131349721918028643
13675066 3 18060138747654467738
14178342 30 18186529795411304739
14289901 80 18335708290251287779
15375462 478 18341900701269034005
18186145 218 18186517683307903366
19050596 39 18409733979890405417
200 152 18338227271607079599
20279233 1 17385716993599341894
20281475 54 18040716948396994906
20645477 56 17060338539097893212
20645477 70 16988005972896025558
2306618 200 17749098994490189589
23402539 116 15936400156862737422
23402655 69 18060137609488290160
23557571 272 18411990173830167805
23559900 14 18335697299540772993
26918003 58 18409166636285842619
3286 77 18189055463413400349
3545911 37 18412830161811299681
4175511 318 17632576033385829405
4214541 1 18408888434105704057
5104073 3 18411696574123929562
77492 1 17775279486806408126

> <PUBCHEM_SHAPE_MULTIPOLES>
338.12
10.29
1.91
1.19
8.82
0.15
-0.36
-0.29
2.33
-2.28
0.41
-1.04
-0.08
0.11

> <PUBCHEM_SHAPE_SELFOVERLAP>
634.476

> <PUBCHEM_SHAPE_VOLUME>
219.2

> <PUBCHEM_COORDINATE_TYPE>
2
5
10

$$$$
