5319525
  -OEChem-02172602463D

 71 75  0     1  0  0  0  0  0999 V2000
   -0.2925   -1.9047   -0.0491 O   0  0  0  0  0  0  0  0  0  0  0  0
   -3.0014   -1.4898   -0.4572 O   0  0  0  0  0  0  0  0  0  0  0  0
   -3.6254    0.2888   -1.8893 O   0  0  0  0  0  0  0  0  0  0  0  0
   -6.5240    0.7158   -1.5211 O   0  0  0  0  0  0  0  0  0  0  0  0
   -2.3618   -4.9148   -0.4518 O   0  0  0  0  0  0  0  0  0  0  0  0
   -5.8783   -0.9615    0.6089 O   0  0  0  0  0  0  0  0  0  0  0  0
    1.5550   -1.4233    1.2920 O   0  0  0  0  0  0  0  0  0  0  0  0
    0.3019   -5.4216    0.1618 O   0  0  0  0  0  0  0  0  0  0  0  0
    1.5719   -4.0894    2.2327 O   0  0  0  0  0  0  0  0  0  0  0  0
   -7.0763    1.7126    1.0128 O   0  0  0  0  0  0  0  0  0  0  0  0
    0.4113    0.8564    1.5574 O   0  0  0  0  0  0  0  0  0  0  0  0
    2.4787    4.7343   -0.4047 O   0  0  0  0  0  0  0  0  0  0  0  0
    6.6231   -1.2497   -1.7967 O   0  0  0  0  0  0  0  0  0  0  0  0
   -0.6259    3.2108    1.7467 O   0  0  0  0  0  0  0  0  0  0  0  0
   -5.4661    1.1054   -0.6446 C   0  0  1  0  0  0  0  0  0  0  0  0
   -1.0776   -2.8777   -0.7448 C   0  0  1  0  0  0  0  0  0  0  0  0
   -1.6114   -3.9257    0.2414 C   0  0  2  0  0  0  0  0  0  0  0  0
   -4.8918   -0.1052    0.0672 C   0  0  2  0  0  0  0  0  0  0  0  0
   -0.4691   -4.5802    1.0234 C   0  0  2  0  0  0  0  0  0  0  0  0
   -4.0830   -0.7734   -1.0351 C   0  0  2  0  0  0  0  0  0  0  0  0
    0.4182   -3.4982    1.6438 C   0  0  2  0  0  0  0  0  0  0  0  0
    0.8497   -2.4578    0.6056 C   0  0  1  0  0  0  0  0  0  0  0  0
   -4.2782    1.5147   -1.5005 C   0  0  0  0  0  0  0  0  0  0  0  0
   -2.2131   -2.1334   -1.4417 C   0  0  0  0  0  0  0  0  0  0  0  0
   -5.9675    2.2034    0.2773 C   0  0  0  0  0  0  0  0  0  0  0  0
    2.5198   -0.7607    0.5873 C   0  0  0  0  0  0  0  0  0  0  0  0
    2.4819    0.6237    0.3538 C   0  0  0  0  0  0  0  0  0  0  0  0
    3.5706   -1.5374    0.0985 C   0  0  0  0  0  0  0  0  0  0  0  0
    3.5263    1.2287   -0.3868 C   0  0  0  0  0  0  0  0  0  0  0  0
    1.4300    1.4181    0.8399 C   0  0  0  0  0  0  0  0  0  0  0  0
    4.5966   -0.9426   -0.6294 C   0  0  0  0  0  0  0  0  0  0  0  0
    4.5758    0.4311   -0.8711 C   0  0  0  0  0  0  0  0  0  0  0  0
    1.4158    2.7935    0.5941 C   0  0  0  0  0  0  0  0  0  0  0  0
    3.4925    2.6130   -0.6223 C   0  0  0  0  0  0  0  0  0  0  0  0
    2.4412    3.3895   -0.1333 C   0  0  0  0  0  0  0  0  0  0  0  0
    5.6906   -1.7538   -1.1398 C   0  0  0  0  0  0  0  0  0  0  0  0
    0.3196    3.6364    1.0974 C   0  0  0  0  0  0  0  0  0  0  0  0
    1.4481    5.5308    0.0679 C   0  0  0  0  0  0  0  0  0  0  0  0
    0.4066    5.0745    0.7789 C   0  0  0  0  0  0  0  0  0  0  0  0
    5.7199   -3.2561   -0.8796 C   0  0  0  0  0  0  0  0  0  0  0  0
    1.5984    6.9757   -0.2894 C   0  0  0  0  0  0  0  0  0  0  0  0
   -0.4621   -3.3525   -1.5198 H   0  0  0  0  0  0  0  0  0  0  0  0
   -2.2728   -3.4505    0.9772 H   0  0  0  0  0  0  0  0  0  0  0  0
   -4.2256    0.1980    0.8855 H   0  0  0  0  0  0  0  0  0  0  0  0
   -0.8653   -5.2396    1.8041 H   0  0  0  0  0  0  0  0  0  0  0  0
   -4.7018   -1.4647   -1.6209 H   0  0  0  0  0  0  0  0  0  0  0  0
   -0.1367   -2.9913    2.4436 H   0  0  0  0  0  0  0  0  0  0  0  0
    1.4809   -2.9413   -0.1501 H   0  0  0  0  0  0  0  0  0  0  0  0
   -1.7797   -1.3776   -2.1074 H   0  0  0  0  0  0  0  0  0  0  0  0
   -2.8262   -2.8155   -2.0406 H   0  0  0  0  0  0  0  0  0  0  0  0
   -3.5474    2.1082   -0.9404 H   0  0  0  0  0  0  0  0  0  0  0  0
   -4.5629    2.0559   -2.4078 H   0  0  0  0  0  0  0  0  0  0  0  0
   -5.1973    2.5276    0.9839 H   0  0  0  0  0  0  0  0  0  0  0  0
   -6.3060    3.0754   -0.2923 H   0  0  0  0  0  0  0  0  0  0  0  0
   -6.1702    0.1228   -2.2046 H   0  0  0  0  0  0  0  0  0  0  0  0
   -3.2063   -4.5151   -0.7193 H   0  0  0  0  0  0  0  0  0  0  0  0
   -6.3962   -0.4443    1.2487 H   0  0  0  0  0  0  0  0  0  0  0  0
   -0.3105   -6.0582   -0.2450 H   0  0  0  0  0  0  0  0  0  0  0  0
    1.2654   -4.7441    2.8830 H   0  0  0  0  0  0  0  0  0  0  0  0
   -7.7541    1.4361    0.3724 H   0  0  0  0  0  0  0  0  0  0  0  0
    3.5899   -2.5991    0.3251 H   0  0  0  0  0  0  0  0  0  0  0  0
    5.3776    0.8985   -1.4405 H   0  0  0  0  0  0  0  0  0  0  0  0
    4.2889    3.0911   -1.1901 H   0  0  0  0  0  0  0  0  0  0  0  0
    0.6837    0.0046    1.9309 H   0  0  0  0  0  0  0  0  0  0  0  0
   -0.3843    5.7247    1.1345 H   0  0  0  0  0  0  0  0  0  0  0  0
    4.8415   -3.7344   -1.3207 H   0  0  0  0  0  0  0  0  0  0  0  0
    5.7820   -3.4529    0.1937 H   0  0  0  0  0  0  0  0  0  0  0  0
    6.6095   -3.6834   -1.3534 H   0  0  0  0  0  0  0  0  0  0  0  0
    1.6265    7.0947   -1.3774 H   0  0  0  0  0  0  0  0  0  0  0  0
    0.7736    7.5850    0.0943 H   0  0  0  0  0  0  0  0  0  0  0  0
    2.5307    7.3723    0.1255 H   0  0  0  0  0  0  0  0  0  0  0  0
  1 16  1  0  0  0  0
  1 22  1  0  0  0  0
  2 20  1  0  0  0  0
  2 24  1  0  0  0  0
  3 20  1  0  0  0  0
  3 23  1  0  0  0  0
  4 15  1  0  0  0  0
  4 55  1  0  0  0  0
  5 17  1  0  0  0  0
  5 56  1  0  0  0  0
  6 18  1  0  0  0  0
  6 57  1  0  0  0  0
  7 22  1  0  0  0  0
  7 26  1  0  0  0  0
  8 19  1  0  0  0  0
  8 58  1  0  0  0  0
  9 21  1  0  0  0  0
  9 59  1  0  0  0  0
 10 25  1  0  0  0  0
 10 60  1  0  0  0  0
 11 30  1  0  0  0  0
 11 64  1  0  0  0  0
 12 35  1  0  0  0  0
 12 38  1  0  0  0  0
 13 36  2  0  0  0  0
 14 37  2  0  0  0  0
 15 18  1  0  0  0  0
 15 23  1  0  0  0  0
 15 25  1  0  0  0  0
 16 17  1  0  0  0  0
 16 24  1  0  0  0  0
 16 42  1  0  0  0  0
 17 19  1  0  0  0  0
 17 43  1  0  0  0  0
 18 20  1  0  0  0  0
 18 44  1  0  0  0  0
 19 21  1  0  0  0  0
 19 45  1  0  0  0  0
 20 46  1  0  0  0  0
 21 22  1  0  0  0  0
 21 47  1  0  0  0  0
 22 48  1  0  0  0  0
 23 51  1  0  0  0  0
 23 52  1  0  0  0  0
 24 49  1  0  0  0  0
 24 50  1  0  0  0  0
 25 53  1  0  0  0  0
 25 54  1  0  0  0  0
 26 27  2  0  0  0  0
 26 28  1  0  0  0  0
 27 29  1  0  0  0  0
 27 30  1  0  0  0  0
 28 31  2  0  0  0  0
 28 61  1  0  0  0  0
 29 32  2  0  0  0  0
 29 34  1  0  0  0  0
 30 33  2  0  0  0  0
 31 32  1  0  0  0  0
 31 36  1  0  0  0  0
 32 62  1  0  0  0  0
 33 35  1  0  0  0  0
 33 37  1  0  0  0  0
 34 35  2  0  0  0  0
 34 63  1  0  0  0  0
 36 40  1  0  0  0  0
 37 39  1  0  0  0  0
 38 39  2  0  0  0  0
 38 41  1  0  0  0  0
 39 65  1  0  0  0  0
 40 66  1  0  0  0  0
 40 67  1  0  0  0  0
 40 68  1  0  0  0  0
 41 69  1  0  0  0  0
 41 70  1  0  0  0  0
 41 71  1  0  0  0  0
M  END
> <PUBCHEM_COMPOUND_CID>
5319525

> <PUBCHEM_CONFORMER_RMSD>
1

> <PUBCHEM_CONFORMER_DIVERSEORDER>
1
402
321
82
157
221
42
448
178
336
109
385
5
320
431
356
92
72
122
328
389
47
254
377
447
100
169
188
227
202
141
138
228
14
238
224
288
247
435
307
187
235
281
289
145
150
248
297
338
399
70
241
190
219
218
410
149
380
176
181
275
88
371
6
271
65
287
301
76
124
101
367
426
282
257
11
442
226
309
345
368
334
406
46
315
61
28
77
212
353
69
324
383
290
192
222
90
180
400
446
302
298
310
232
110
272
407
102
24
265
53
45
199
260
378
21
358
174
390
95
244
152
266
274
139
343
262
280
12
422
86
311
306
113
365
172
200
165
75
337
242
136
40
203
67
223
239
195
342
170
57
316
326
273
347
186
119
384
63
158
39
201
116
121
322
140
259
251
312
231
99
409
359
168
89
142
381
436
107
78
253
81
130
284
8
255
216
403
215
137
206
386
433
252
211
401
214
243
144
51
340
191
103
392
105
276
37
296
360
397
246
249
155
425
106
198
23
304
25
428
98
291
376
175
346
34
135
393
146
294
430
303
414
233
245
318
372
283
277
183
416
339
161
179
32
374
197
445
49
43
156
163
94
22
91
439
50
134
59
60
125
293
217
225
154
30
396
133
220
96
151
415
36
234
398
413
15
104
108
2
85
261
182
33
313
10
308
123
97
285
230
357
441
131
143
129
434
27
412
375
332
79
264
196
210
351
362
160
13
41
64
4
267
354
329
114
427
127
35
118
352
299
258
177
16
111
449
229
379
370
363
205
423
68
437
185
29
366
369
279
93
295
388
373
420
9
341
348
421
300
189
48
38
62
128
250
162
184
26
317
173
147
419
166
404
305
270
120
355
330
204
87
132
432
83
394
240
207
153
112
66
115
268
408
18
382
417
325
55
164
278
405
444
17
327
395
148
117
387
167
440
263
58
319
391
424
194
159
7
171
20
80
237
193
323
429
19
286
56
209
44
126
52
349
71
3
331
269
438
361
74
84
418
31
256
344
443
54
411
314
333
213
364
236
335
73
350
292
208

> <PUBCHEM_MMFF94_PARTIAL_CHARGES>
50
1 -0.56
10 -0.68
11 -0.53
12 -0.16
13 -0.57
14 -0.57
15 0.28
16 0.28
17 0.28
18 0.28
19 0.28
2 -0.56
20 0.56
21 0.28
22 0.56
23 0.28
24 0.28
25 0.28
26 0.08
28 -0.15
3 -0.56
30 0.08
31 0.09
32 -0.15
33 0.09
34 -0.15
35 0.08
36 0.42
37 0.47
38 -0.06
39 -0.14
4 -0.68
40 0.06
41 0.14
5 -0.68
55 0.4
56 0.4
57 0.4
58 0.4
59 0.4
6 -0.68
60 0.4
61 0.15
62 0.15
63 0.15
64 0.45
65 0.15
7 -0.36
8 -0.68
9 -0.68

> <PUBCHEM_EFFECTIVE_ROTOR_COUNT>
9.2

> <PUBCHEM_PHARMACOPHORE_FEATURES>
25
1 1 acceptor
1 10 acceptor
1 10 donor
1 11 donor
1 12 acceptor
1 13 acceptor
1 14 acceptor
1 2 acceptor
1 3 acceptor
1 4 acceptor
1 4 donor
1 5 acceptor
1 5 donor
1 6 acceptor
1 6 donor
1 7 acceptor
1 8 acceptor
1 8 donor
1 9 acceptor
1 9 donor
5 3 15 18 20 23 rings
6 1 16 17 19 21 22 rings
6 12 33 35 37 38 39 rings
6 26 27 28 29 31 32 rings
6 27 29 30 33 34 35 rings

> <PUBCHEM_HEAVY_ATOM_COUNT>
41

> <PUBCHEM_ATOM_DEF_STEREO_COUNT>
7

> <PUBCHEM_ATOM_UDEF_STEREO_COUNT>
1

> <PUBCHEM_BOND_DEF_STEREO_COUNT>
0

> <PUBCHEM_BOND_UDEF_STEREO_COUNT>
0

> <PUBCHEM_ISOTOPIC_ATOM_COUNT>
0

> <PUBCHEM_COMPONENT_COUNT>
1

> <PUBCHEM_CACTVS_TAUTO_COUNT>
28

> <PUBCHEM_CONFORMER_ID>
00512B6500000001

> <PUBCHEM_MMFF94_ENERGY>
145.2682

> <PUBCHEM_FEATURE_SELFOVERLAP>
127.083

> <PUBCHEM_SHAPE_FINGERPRINT>
10190206 1 18122354476153715814
10439779 11 18123162844347789592
10483366 6 18267591208839551014
10675989 125 18409729530990381166
10764073 3 17627185166740267864
10842077 115 17834359648751149209
11059048 146 18122057873954028549
11136256 1 18129399132683177819
11621639 336 17979923704867651545
12788726 201 18338799993017586386
13165053 182 17462883031400252180
140371 6 18269559502272649592
151778 21 18335973221414796609
15320295 198 18189605061569812797
15320467 1 17689715681386642493
15351339 4 18190452766720269218
15439362 3 18267866257917705745
15968369 26 17766814480071344873
16628084 112 18123194494004368254
16992727 255 18259994769049513118
19311894 1 18342459227058487503
20465049 17 18409166593283785743
20771845 165 16752984650106718548
20775438 99 17983834946757308084
21133410 127 17755288321500671285
21133410 62 18188500069056481075
24180151 248 17690852575861598214
437795 70 17987250940865378126
50150288 127 16550922836719130241
508180 173 18411142441627817890
5252454 2 18040702676041777471
57527295 17 18187648076653501418
5776283 40 18118411871837078228

> <PUBCHEM_SHAPE_MULTIPOLES>
761.59
12.91
9.4
1.51
13.63
7.12
-0.09
-0.43
5.98
-4.73
-2.08
0.18
-0.6
0.27

> <PUBCHEM_SHAPE_SELFOVERLAP>
1664.826

> <PUBCHEM_SHAPE_VOLUME>
411.2

> <PUBCHEM_COORDINATE_TYPE>
2
5
10

$$$$
