56936219
  -OEChem-02172602303D

 44 43  0     0  0  0  0  0  0999 V2000
   -5.3536    1.3492    1.1640 O   0  0  0  0  0  0  0  0  0  0  0  0
    3.1526   -0.6348   -0.0810 C   0  0  0  0  0  0  0  0  0  0  0  0
    1.8649   -0.7433    0.7394 C   0  0  0  0  0  0  0  0  0  0  0  0
    4.1576    0.3679    0.4933 C   0  0  0  0  0  0  0  0  0  0  0  0
    0.8694   -1.7045    0.0802 C   0  0  0  0  0  0  0  0  0  0  0  0
    5.4135    0.5309   -0.3658 C   0  0  0  0  0  0  0  0  0  0  0  0
   -0.4512   -1.8197    0.8485 C   0  0  0  0  0  0  0  0  0  0  0  0
    6.3858    1.5318    0.2599 C   0  0  0  0  0  0  0  0  0  0  0  0
   -1.3973   -2.8125    0.2378 C   0  0  0  0  0  0  0  0  0  0  0  0
   -2.5874   -1.0882   -1.1413 C   0  0  0  0  0  0  0  0  0  0  0  0
    7.6506    1.6743   -0.5717 C   0  0  0  0  0  0  0  0  0  0  0  0
   -3.6327   -0.3719   -0.2799 C   0  0  0  0  0  0  0  0  0  0  0  0
   -2.3493   -2.4862   -0.6489 C   0  0  0  0  0  0  0  0  0  0  0  0
   -3.8414    1.0808   -0.7058 C   0  0  0  0  0  0  0  0  0  0  0  0
   -4.8149    1.8453    0.1759 C   0  0  0  0  0  0  0  0  0  0  0  0
   -5.0668    3.2812   -0.2049 C   0  0  0  0  0  0  0  0  0  0  0  0
    3.6265   -1.6220   -0.1471 H   0  0  0  0  0  0  0  0  0  0  0  0
    2.9012   -0.3354   -1.1062 H   0  0  0  0  0  0  0  0  0  0  0  0
    2.1006   -1.0905    1.7523 H   0  0  0  0  0  0  0  0  0  0  0  0
    1.4057    0.2480    0.8341 H   0  0  0  0  0  0  0  0  0  0  0  0
    3.6679    1.3439    0.6002 H   0  0  0  0  0  0  0  0  0  0  0  0
    4.4448    0.0461    1.5020 H   0  0  0  0  0  0  0  0  0  0  0  0
    0.6678   -1.3681   -0.9446 H   0  0  0  0  0  0  0  0  0  0  0  0
    1.3307   -2.6974   -0.0009 H   0  0  0  0  0  0  0  0  0  0  0  0
    5.9067   -0.4422   -0.4783 H   0  0  0  0  0  0  0  0  0  0  0  0
    5.1307    0.8685   -1.3701 H   0  0  0  0  0  0  0  0  0  0  0  0
   -0.2442   -2.1462    1.8758 H   0  0  0  0  0  0  0  0  0  0  0  0
   -0.9100   -0.8301    0.9493 H   0  0  0  0  0  0  0  0  0  0  0  0
    6.6568    1.2061    1.2710 H   0  0  0  0  0  0  0  0  0  0  0  0
    5.9029    2.5115    0.3530 H   0  0  0  0  0  0  0  0  0  0  0  0
   -1.2885   -3.8530    0.5316 H   0  0  0  0  0  0  0  0  0  0  0  0
   -1.6592   -0.5077   -1.1754 H   0  0  0  0  0  0  0  0  0  0  0  0
   -2.9392   -1.1425   -2.1790 H   0  0  0  0  0  0  0  0  0  0  0  0
   -4.5893   -0.9079   -0.3342 H   0  0  0  0  0  0  0  0  0  0  0  0
   -3.3287   -0.3948    0.7745 H   0  0  0  0  0  0  0  0  0  0  0  0
    7.4184    2.0283   -1.5811 H   0  0  0  0  0  0  0  0  0  0  0  0
    8.1753    0.7171   -0.6551 H   0  0  0  0  0  0  0  0  0  0  0  0
    8.3307    2.3950   -0.1069 H   0  0  0  0  0  0  0  0  0  0  0  0
   -2.9979   -3.2687   -1.0335 H   0  0  0  0  0  0  0  0  0  0  0  0
   -2.8841    1.6137   -0.6766 H   0  0  0  0  0  0  0  0  0  0  0  0
   -4.2223    1.1110   -1.7327 H   0  0  0  0  0  0  0  0  0  0  0  0
   -5.4563    3.3268   -1.2249 H   0  0  0  0  0  0  0  0  0  0  0  0
   -4.1358    3.8483   -0.1304 H   0  0  0  0  0  0  0  0  0  0  0  0
   -5.8049    3.7188    0.4729 H   0  0  0  0  0  0  0  0  0  0  0  0
  1 15  2  0  0  0  0
  2  3  1  0  0  0  0
  2  4  1  0  0  0  0
  2 17  1  0  0  0  0
  2 18  1  0  0  0  0
  3  5  1  0  0  0  0
  3 19  1  0  0  0  0
  3 20  1  0  0  0  0
  4  6  1  0  0  0  0
  4 21  1  0  0  0  0
  4 22  1  0  0  0  0
  5  7  1  0  0  0  0
  5 23  1  0  0  0  0
  5 24  1  0  0  0  0
  6  8  1  0  0  0  0
  6 25  1  0  0  0  0
  6 26  1  0  0  0  0
  7  9  1  0  0  0  0
  7 27  1  0  0  0  0
  7 28  1  0  0  0  0
  8 11  1  0  0  0  0
  8 29  1  0  0  0  0
  8 30  1  0  0  0  0
  9 13  2  0  0  0  0
  9 31  1  0  0  0  0
 10 12  1  0  0  0  0
 10 13  1  0  0  0  0
 10 32  1  0  0  0  0
 10 33  1  0  0  0  0
 11 36  1  0  0  0  0
 11 37  1  0  0  0  0
 11 38  1  0  0  0  0
 12 14  1  0  0  0  0
 12 34  1  0  0  0  0
 12 35  1  0  0  0  0
 13 39  1  0  0  0  0
 14 15  1  0  0  0  0
 14 40  1  0  0  0  0
 14 41  1  0  0  0  0
 15 16  1  0  0  0  0
 16 42  1  0  0  0  0
 16 43  1  0  0  0  0
 16 44  1  0  0  0  0
M  END
> <PUBCHEM_COMPOUND_CID>
56936219

> <PUBCHEM_CONFORMER_RMSD>
1.2

> <PUBCHEM_CONFORMER_DIVERSEORDER>
1
36
42
31
56
41
4
80
34
43
21
96
3
72
73
30
88
76
14
69
82
24
100
16
83
75
94
54
77
19
47
7
35
51
22
33
5
99
28
38
67
63
18
66
53
46
71
6
65
92
55
98
59
20
2
48
9
23
32
84
52
81
86
74
61
62
79
91
45
10
8
44
27
50
13
12
25
102
85
97
89
29
26
68
70
87
60
49
93
90
57
37
17
95
78
11
101
40
64
58
39
15

> <PUBCHEM_MMFF94_PARTIAL_CHARGES>
10
1 -0.57
10 0.14
13 -0.29
14 0.06
15 0.45
16 0.06
31 0.15
39 0.15
7 0.14
9 -0.29

> <PUBCHEM_EFFECTIVE_ROTOR_COUNT>
11

> <PUBCHEM_PHARMACOPHORE_FEATURES>
3
1 1 acceptor
1 11 hydrophobe
4 10 12 13 14 hydrophobe

> <PUBCHEM_HEAVY_ATOM_COUNT>
16

> <PUBCHEM_ATOM_DEF_STEREO_COUNT>
0

> <PUBCHEM_ATOM_UDEF_STEREO_COUNT>
0

> <PUBCHEM_BOND_DEF_STEREO_COUNT>
1

> <PUBCHEM_BOND_UDEF_STEREO_COUNT>
0

> <PUBCHEM_ISOTOPIC_ATOM_COUNT>
0

> <PUBCHEM_COMPONENT_COUNT>
1

> <PUBCHEM_CACTVS_TAUTO_COUNT>
3

> <PUBCHEM_CONFORMER_ID>
0364C71B00000001

> <PUBCHEM_MMFF94_ENERGY>
2.5761

> <PUBCHEM_FEATURE_SELFOVERLAP>
15.223

> <PUBCHEM_SHAPE_FINGERPRINT>
10493431 412 18335702711294472485
12390115 104 18411706478239677819
13073987 5 18261108608409230514
13885169 86 18408892827799874985
14251764 38 18194680604020642268
14251764 75 18126289632295818769
14598715 104 17915727881868377384
14774955 27 18121771735122622805
15188451 53 8286202729958381202
15501527 16 18409731759249914538
155225 5 18340205194078443520
155225 6 18052540963715707521
15778101 99 18410013264755814734
15880784 105 8502373347625270526
1768 23 17531826730876860860
17834072 32 18410571764843282679
20621476 66 18409732859247014276
20621476 91 8935004742210898390
20765182 5 18408322202856018628
20843269 155 9511453420813146220
21095123 145 11386363765144560688
21401589 2 18260551112974104267
23389318 12 11455882582375287936
23402655 69 18343579646987467250
270888 7 18337388240971209445
312425 54 12324504399457315508
328310 18 17918280873771680936
441001 317 18336260266858906898
5283173 99 18270396213309317824
6327066 14 18337384951279410213
636775 72 18267298919409547680
6431902 208 9727635011831046460
7062679 6 18335139817228412476
7808743 9 18410287000042968683
7970288 3 9439106663812523773

> <PUBCHEM_SHAPE_MULTIPOLES>
323.4
17.9
3.46
0.96
26.64
0.48
0
19.85
-1.23
-5.02
-0.02
-0.44
-0.08
-1

> <PUBCHEM_SHAPE_SELFOVERLAP>
590.065

> <PUBCHEM_SHAPE_VOLUME>
205.8

> <PUBCHEM_COORDINATE_TYPE>
2
5
10

$$$$
