101736737
  -OEChem-02172602433D

 34 34  0     1  0  0  0  0  0999 V2000
    2.4692    1.4973   -0.6955 O   0  0  0  0  0  0  0  0  0  0  0  0
    2.1687   -0.7984    0.1555 C   0  0  0  0  0  0  0  0  0  0  0  0
    1.4941    0.4837   -0.4418 C   0  0  1  0  0  0  0  0  0  0  0  0
    0.2800    1.1067    0.3124 C   0  0  2  0  0  0  0  0  0  0  0  0
    2.8034   -0.5638    1.5383 C   0  0  0  0  0  0  0  0  0  0  0  0
    1.1640   -1.9605    0.2514 C   0  0  0  0  0  0  0  0  0  0  0  0
    3.3099   -1.2471   -0.7914 C   0  0  0  0  0  0  0  0  0  0  0  0
   -1.0694    0.4326    0.1253 C   0  0  0  0  0  0  0  0  0  0  0  0
    0.1562    2.5990   -0.0489 C   0  0  0  0  0  0  0  0  0  0  0  0
   -1.9744    0.3769    1.1852 C   0  0  0  0  0  0  0  0  0  0  0  0
   -1.4025   -0.1304   -1.1066 C   0  0  0  0  0  0  0  0  0  0  0  0
   -3.2127   -0.2420    1.0133 C   0  0  0  0  0  0  0  0  0  0  0  0
   -2.6407   -0.7491   -1.2787 C   0  0  0  0  0  0  0  0  0  0  0  0
   -3.5458   -0.8050   -0.2187 C   0  0  0  0  0  0  0  0  0  0  0  0
    1.1774    0.2135   -1.4526 H   0  0  0  0  0  0  0  0  0  0  0  0
    0.5177    1.0796    1.3833 H   0  0  0  0  0  0  0  0  0  0  0  0
    2.0505   -0.2872    2.2830 H   0  0  0  0  0  0  0  0  0  0  0  0
    3.2995   -1.4708    1.9035 H   0  0  0  0  0  0  0  0  0  0  0  0
    3.5562    0.2305    1.5097 H   0  0  0  0  0  0  0  0  0  0  0  0
    1.6641   -2.8855    0.5626 H   0  0  0  0  0  0  0  0  0  0  0  0
    0.6891   -2.1601   -0.7147 H   0  0  0  0  0  0  0  0  0  0  0  0
    0.3848   -1.7619    0.9929 H   0  0  0  0  0  0  0  0  0  0  0  0
    2.9319   -1.4336   -1.8029 H   0  0  0  0  0  0  0  0  0  0  0  0
    3.7778   -2.1735   -0.4382 H   0  0  0  0  0  0  0  0  0  0  0  0
    4.0987   -0.4901   -0.8616 H   0  0  0  0  0  0  0  0  0  0  0  0
    0.0363    2.7392   -1.1294 H   0  0  0  0  0  0  0  0  0  0  0  0
   -0.7189    3.0482    0.4360 H   0  0  0  0  0  0  0  0  0  0  0  0
    1.0247    3.1763    0.2846 H   0  0  0  0  0  0  0  0  0  0  0  0
    2.8235    1.7912    0.1604 H   0  0  0  0  0  0  0  0  0  0  0  0
   -1.7283    0.8128    2.1497 H   0  0  0  0  0  0  0  0  0  0  0  0
   -0.7462   -0.0810   -1.9678 H   0  0  0  0  0  0  0  0  0  0  0  0
   -3.9177   -0.2849    1.8383 H   0  0  0  0  0  0  0  0  0  0  0  0
   -2.9038   -1.1808   -2.2400 H   0  0  0  0  0  0  0  0  0  0  0  0
   -4.5106   -1.2852   -0.3532 H   0  0  0  0  0  0  0  0  0  0  0  0
  1  3  1  0  0  0  0
  1 29  1  0  0  0  0
  2  3  1  0  0  0  0
  2  5  1  0  0  0  0
  2  6  1  0  0  0  0
  2  7  1  0  0  0  0
  3  4  1  0  0  0  0
  3 15  1  0  0  0  0
  4  8  1  0  0  0  0
  4  9  1  0  0  0  0
  4 16  1  0  0  0  0
  5 17  1  0  0  0  0
  5 18  1  0  0  0  0
  5 19  1  0  0  0  0
  6 20  1  0  0  0  0
  6 21  1  0  0  0  0
  6 22  1  0  0  0  0
  7 23  1  0  0  0  0
  7 24  1  0  0  0  0
  7 25  1  0  0  0  0
  8 10  2  0  0  0  0
  8 11  1  0  0  0  0
  9 26  1  0  0  0  0
  9 27  1  0  0  0  0
  9 28  1  0  0  0  0
 10 12  1  0  0  0  0
 10 30  1  0  0  0  0
 11 13  2  0  0  0  0
 11 31  1  0  0  0  0
 12 14  2  0  0  0  0
 12 32  1  0  0  0  0
 13 14  1  0  0  0  0
 13 33  1  0  0  0  0
 14 34  1  0  0  0  0
M  END
> <PUBCHEM_COMPOUND_CID>
101736737

> <PUBCHEM_CONFORMER_RMSD>
0.6

> <PUBCHEM_CONFORMER_DIVERSEORDER>
1
4
5
2
6
3

> <PUBCHEM_MMFF94_PARTIAL_CHARGES>
15
1 -0.68
10 -0.15
11 -0.15
12 -0.15
13 -0.15
14 -0.15
29 0.4
3 0.28
30 0.15
31 0.15
32 0.15
33 0.15
34 0.15
4 0.14
8 -0.14

> <PUBCHEM_EFFECTIVE_ROTOR_COUNT>
3

> <PUBCHEM_PHARMACOPHORE_FEATURES>
5
1 1 acceptor
1 1 donor
1 9 hydrophobe
4 2 5 6 7 hydrophobe
6 8 10 11 12 13 14 rings

> <PUBCHEM_HEAVY_ATOM_COUNT>
14

> <PUBCHEM_ATOM_DEF_STEREO_COUNT>
2

> <PUBCHEM_ATOM_UDEF_STEREO_COUNT>
0

> <PUBCHEM_BOND_DEF_STEREO_COUNT>
0

> <PUBCHEM_BOND_UDEF_STEREO_COUNT>
0

> <PUBCHEM_ISOTOPIC_ATOM_COUNT>
0

> <PUBCHEM_COMPONENT_COUNT>
1

> <PUBCHEM_CACTVS_TAUTO_COUNT>
3

> <PUBCHEM_CONFORMER_ID>
0610612100000001

> <PUBCHEM_MMFF94_ENERGY>
47.9712

> <PUBCHEM_FEATURE_SELFOVERLAP>
25.372

> <PUBCHEM_SHAPE_FINGERPRINT>
10618630 7 18411137991830455030
11578080 2 17844782876831996153
12202030 40 17313672662847393515
12251169 10 16702294642218276114
12932764 1 17988647427832729633
13296908 3 18341326704216336372
13581323 91 16988843856364040215
14251717 144 18337387240169917967
15219456 202 17385437760848552925
16945 1 18260546693078183850
17804303 29 16773249387354417374
17834072 14 17169247313835019864
18186145 218 17530966873575053173
19422 9 18130799957313784711
20201158 50 17967531246649149947
20279233 1 17095237064107263721
20361792 2 18411696578033800277
20559304 39 18060142088970316385
20645477 70 18335977657931663671
20653085 51 13046226013772608101
20671657 53 17749388118597711406
20711985 344 17898564280970558196
21061003 4 18410005524813089401
22112679 90 17989214745572692497
22445834 79 18131354072693726787
2255824 54 18124597745402812477
22802520 49 17313090917980175133
232386 152 17418092152344609661
23402539 116 18263648373142753446
23419403 2 15154099746887028152
23559900 14 15913344497529515252
23598291 2 18272663358840775701
2748010 2 17836360454511704630
449060 23 18130796607418752630
528862 383 18262238944552461704
7364860 26 18058729250835888016
77492 1 17988650730614860461
81228 2 18047461227935924672

> <PUBCHEM_SHAPE_MULTIPOLES>
282.24
5.6
1.9
1.27
0.86
0.89
-0.16
-2.32
-0.18
-0.86
0.19
0.12
-0.16
-0.42

> <PUBCHEM_SHAPE_SELFOVERLAP>
567.275

> <PUBCHEM_SHAPE_VOLUME>
166.7

> <PUBCHEM_COORDINATE_TYPE>
2
5
10

$$$$
