5471206
  -OEChem-02172602483D

 46 49  0     0  0  0  0  0  0999 V2000
    6.7056   -4.6157    0.6344 Cl  0  0  0  0  0  0  0  0  0  0  0  0
   -9.0024   -1.5033    0.3791 Cl  0  0  0  0  0  0  0  0  0  0  0  0
    2.7141    0.2153   -1.5941 O   0  0  0  0  0  0  0  0  0  0  0  0
   -0.2832   -1.0466   -0.5497 O   0  0  0  0  0  0  0  0  0  0  0  0
    1.1295    1.4027    0.3019 N   0  0  0  0  0  0  0  0  0  0  0  0
   -0.7095    2.4142   -0.4296 N   0  0  0  0  0  0  0  0  0  0  0  0
    1.4309    2.7404    0.2819 C   0  0  0  0  0  0  0  0  0  0  0  0
    2.0162    0.3363    0.7087 C   0  0  0  0  0  0  0  0  0  0  0  0
   -0.1591    1.2586   -0.1311 C   0  0  0  0  0  0  0  0  0  0  0  0
    0.2671    3.3504   -0.1783 C   0  0  0  0  0  0  0  0  0  0  0  0
    2.5861    3.4477    0.6165 C   0  0  0  0  0  0  0  0  0  0  0  0
    2.8290   -0.2136   -0.4481 C   0  0  0  0  0  0  0  0  0  0  0  0
    0.2361    4.7481   -0.3192 C   0  0  0  0  0  0  0  0  0  0  0  0
   -0.8669    0.0260   -0.2630 C   0  0  0  0  0  0  0  0  0  0  0  0
    2.5375    4.8379    0.4705 C   0  0  0  0  0  0  0  0  0  0  0  0
    3.7985   -1.3150   -0.1769 C   0  0  0  0  0  0  0  0  0  0  0  0
    1.3845    5.4784    0.0109 C   0  0  0  0  0  0  0  0  0  0  0  0
   -2.3722    0.0064   -0.0833 C   0  0  0  0  0  0  0  0  0  0  0  0
    3.9169   -1.7879    1.1102 C   0  0  0  0  0  0  0  0  0  0  0  0
    4.5376   -1.8155   -1.2245 C   0  0  0  0  0  0  0  0  0  0  0  0
   -3.0797   -1.1245   -0.2220 C   0  0  0  0  0  0  0  0  0  0  0  0
    4.8237   -2.8172    1.3632 C   0  0  0  0  0  0  0  0  0  0  0  0
    5.4443   -2.8448   -0.9714 C   0  0  0  0  0  0  0  0  0  0  0  0
   -4.5428   -1.2177   -0.0739 C   0  0  0  0  0  0  0  0  0  0  0  0
    5.5874   -3.3457    0.3225 C   0  0  0  0  0  0  0  0  0  0  0  0
   -5.2192   -0.2264    0.6183 C   0  0  0  0  0  0  0  0  0  0  0  0
   -5.2136   -2.2954   -0.6292 C   0  0  0  0  0  0  0  0  0  0  0  0
   -6.6042   -0.3151    0.7591 C   0  0  0  0  0  0  0  0  0  0  0  0
   -6.5985   -2.3840   -0.4885 C   0  0  0  0  0  0  0  0  0  0  0  0
   -7.2938   -1.3940    0.2057 C   0  0  0  0  0  0  0  0  0  0  0  0
    2.6899    0.7475    1.4678 H   0  0  0  0  0  0  0  0  0  0  0  0
    1.4132   -0.4499    1.1714 H   0  0  0  0  0  0  0  0  0  0  0  0
    3.4846    2.9552    0.9703 H   0  0  0  0  0  0  0  0  0  0  0  0
   -0.6549    5.2552   -0.6754 H   0  0  0  0  0  0  0  0  0  0  0  0
    3.4148    5.4304    0.7186 H   0  0  0  0  0  0  0  0  0  0  0  0
    1.3773    6.5605   -0.0925 H   0  0  0  0  0  0  0  0  0  0  0  0
   -2.8280    0.9632    0.1442 H   0  0  0  0  0  0  0  0  0  0  0  0
    3.3451   -1.4079    1.9488 H   0  0  0  0  0  0  0  0  0  0  0  0
    4.4418   -1.4401   -2.2386 H   0  0  0  0  0  0  0  0  0  0  0  0
   -2.5767   -2.0549   -0.4742 H   0  0  0  0  0  0  0  0  0  0  0  0
    4.9251   -3.1981    2.3764 H   0  0  0  0  0  0  0  0  0  0  0  0
    6.0327   -3.2471   -1.7921 H   0  0  0  0  0  0  0  0  0  0  0  0
   -4.7229    0.6185    1.0847 H   0  0  0  0  0  0  0  0  0  0  0  0
   -4.6862   -3.0739   -1.1738 H   0  0  0  0  0  0  0  0  0  0  0  0
   -7.1329    0.4610    1.3067 H   0  0  0  0  0  0  0  0  0  0  0  0
   -7.1229   -3.2301   -0.9254 H   0  0  0  0  0  0  0  0  0  0  0  0
  1 25  1  0  0  0  0
  2 30  1  0  0  0  0
  3 12  2  0  0  0  0
  4 14  2  0  0  0  0
  5  7  1  0  0  0  0
  5  8  1  0  0  0  0
  5  9  1  0  0  0  0
  6  9  2  0  0  0  0
  6 10  1  0  0  0  0
  7 10  1  0  0  0  0
  7 11  2  0  0  0  0
  8 12  1  0  0  0  0
  8 31  1  0  0  0  0
  8 32  1  0  0  0  0
  9 14  1  0  0  0  0
 10 13  2  0  0  0  0
 11 15  1  0  0  0  0
 11 33  1  0  0  0  0
 12 16  1  0  0  0  0
 13 17  1  0  0  0  0
 13 34  1  0  0  0  0
 14 18  1  0  0  0  0
 15 17  2  0  0  0  0
 15 35  1  0  0  0  0
 16 19  2  0  0  0  0
 16 20  1  0  0  0  0
 17 36  1  0  0  0  0
 18 21  2  0  0  0  0
 18 37  1  0  0  0  0
 19 22  1  0  0  0  0
 19 38  1  0  0  0  0
 20 23  2  0  0  0  0
 20 39  1  0  0  0  0
 21 24  1  0  0  0  0
 21 40  1  0  0  0  0
 22 25  2  0  0  0  0
 22 41  1  0  0  0  0
 23 25  1  0  0  0  0
 23 42  1  0  0  0  0
 24 26  2  0  0  0  0
 24 27  1  0  0  0  0
 26 28  1  0  0  0  0
 26 43  1  0  0  0  0
 27 29  2  0  0  0  0
 27 44  1  0  0  0  0
 28 30  2  0  0  0  0
 28 45  1  0  0  0  0
 29 30  1  0  0  0  0
 29 46  1  0  0  0  0
M  END
> <PUBCHEM_COMPOUND_CID>
5471206

> <PUBCHEM_CONFORMER_RMSD>
0.8

> <PUBCHEM_CONFORMER_DIVERSEORDER>
1
118
136
194
92
17
34
232
116
111
203
235
256
178
188
36
195
243
129
108
214
252
24
20
104
146
255
42
228
213
181
75
99
57
72
73
248
163
3
106
197
184
137
81
182
216
263
251
78
91
38
49
44
4
250
71
101
7
2
74
39
51
107
157
41
8
176
218
70
61
48
179
143
144
105
185
97
100
240
169
215
114
152
86
199
208
40
62
102
265
174
19
237
150
27
109
245
131
156
231
201
113
190
239
103
135
191
123
21
177
112
227
149
186
54
33
133
148
142
43
210
138
88
259
23
155
12
241
212
14
162
254
153
56
167
65
9
117
82
175
160
262
242
246
261
229
119
233
128
139
258
76
31
145
140
264
64
196
26
260
28
60
147
25
170
15
130
110
224
244
50
134
16
22
80
217
69
84
126
46
37
53
192
35
158
141
207
193
132
168
180
120
6
166
249
165
247
52
225
124
219
220
58
98
154
226
83
253
32
183
5
161
55
202
47
164
94
173
151
87
171
59
45
121
122
189
77
11
204
200
221
230
18
209
127
115
67
29
89
95
90
30
205
13
68
125
159
10
236
96
66
63
222
85
198
187
223
206
257
93
234
211
238
79
172

> <PUBCHEM_MMFF94_PARTIAL_CHARGES>
44
1 -0.18
10 0.23
11 -0.15
12 0.42
13 -0.15
14 0.64
15 -0.15
16 0.09
17 -0.15
18 -0.14
19 -0.15
2 -0.18
20 -0.15
21 -0.18
22 -0.15
23 -0.15
24 0.03
25 0.18
26 -0.15
27 -0.15
28 -0.15
29 -0.15
3 -0.57
30 0.18
33 0.15
34 0.15
35 0.15
36 0.15
37 0.15
38 0.15
39 0.15
4 -0.57
40 0.15
41 0.15
42 0.15
43 0.15
44 0.15
45 0.15
46 0.15
5 0.05
6 -0.57
7 -0.15
8 0.32
9 0.1

> <PUBCHEM_EFFECTIVE_ROTOR_COUNT>
6

> <PUBCHEM_PHARMACOPHORE_FEATURES>
7
1 3 acceptor
1 4 acceptor
3 5 6 9 cation
5 5 6 7 9 10 rings
6 16 19 20 22 23 25 rings
6 24 26 27 28 29 30 rings
6 7 10 11 13 15 17 rings

> <PUBCHEM_HEAVY_ATOM_COUNT>
30

> <PUBCHEM_ATOM_DEF_STEREO_COUNT>
0

> <PUBCHEM_ATOM_UDEF_STEREO_COUNT>
0

> <PUBCHEM_BOND_DEF_STEREO_COUNT>
1

> <PUBCHEM_BOND_UDEF_STEREO_COUNT>
0

> <PUBCHEM_ISOTOPIC_ATOM_COUNT>
0

> <PUBCHEM_COMPONENT_COUNT>
1

> <PUBCHEM_CACTVS_TAUTO_COUNT>
2

> <PUBCHEM_CONFORMER_ID>
00537BE600000001

> <PUBCHEM_MMFF94_ENERGY>
76.3846

> <PUBCHEM_FEATURE_SELFOVERLAP>
35.63

> <PUBCHEM_SHAPE_FINGERPRINT>
10050765 1 18411419501489586433
10100884 174 18115867409132650402
10411042 1 18338516339980201554
10554248 39 18268978956185818007
10721379 63 18268723877203122708
11059845 2 17487636121669207561
11135609 149 18266436837166625293
11136131 41 18196369440526863792
11297750 10 18261666004663905349
11763715 3 18192733171717636212
12107183 9 18270973358398866337
12166972 35 17895199870031942566
12633046 712 17825136859080038051
12788726 201 17973161725709986186
13248334 5 18266458900630389080
13533116 47 18337392755350725905
13540713 4 18263060189729538917
1361 4 17980197806271933071
13673619 4 17967813830165195039
13692115 27 18200318714779044000
13782708 43 18114460145922715079
13785724 45 18341616996745081436
13955234 65 18195809802034905801
14068700 675 18189621553716162422
15042514 8 18195246607473953132
15400415 2 17617937380508672493
15927050 60 17908987952002663998
16990366 60 18334290963760523482
16992752 21 18339089169012804670
19301679 30 18196092136343244310
20505436 4 17485088836078676917
20775438 99 18047458208590168811
21049683 271 18336271232084851196
21130935 74 18265619969780989755
21133410 58 18338506534813647039
21639891 77 18190735336924372229
22033318 11 18128563530053313721
22311459 1 18266177425680097620
2260408 40 18058717121784843688
23522609 53 18121252872344304845
23559900 14 18337669832334153867
24180151 248 17822293521700237413
249057 25 17775297092905950987
249999 5 18196371639596935665
25242607 90 18341602681841845066
255183 451 18343309158347033844
3103668 31 18117838794630718269
32027 91 18336265734442354995
3411729 13 18126005107364527565
3421961 26 18411697733337954168
3534868 343 18262816068700119214
3627633 1 18193837042326260732
4073 2 17975134559224728987
4409770 3 17830452782746846037
44280117 145 17978232657144779078
4516262 110 17978219784668506469
5219985 9 18410016502871005710
5385378 56 18196650920004009873
57527293 21 17489005125404868294
6058803 2 17985831660727832855
6695519 79 17188431888995216945
6697151 62 18266996446072963045
6700243 42 17627257584410731422
70251023 43 18335140865042196864
77188 2 18410572873188146332
7970288 3 18410289168844282322
9962374 69 18270394010054918103
9981440 41 16896807857552457416

> <PUBCHEM_SHAPE_MULTIPOLES>
599.42
19.12
7.2
1.01
35.71
9.87
0.04
-31.13
-2.48
-12.57
-0.68
-0.89
-0.45
-0.64

> <PUBCHEM_SHAPE_SELFOVERLAP>
1305.087

> <PUBCHEM_SHAPE_VOLUME>
328.7

> <PUBCHEM_COORDINATE_TYPE>
2
5
10

$$$$
