101140023
  -OEChem-02172602463D

 70 74  0     0  0  0  0  0  0999 V2000
    0.2860   -6.1324   -0.0002 N   0  0  0  0  0  0  0  0  0  0  0  0
    6.3838    1.8223    0.0025 N   0  0  0  0  0  0  0  0  0  0  0  0
   -3.3578    2.5946    0.0005 N   0  0  0  0  0  0  0  0  0  0  0  0
    0.1361    0.2970   -0.0020 C   0  0  0  0  0  0  0  0  0  0  0  0
    1.2045   -0.5220   -0.0005 C   0  0  0  0  0  0  0  0  0  0  0  0
    0.2517    1.7834   -0.0021 C   0  0  0  0  0  0  0  0  0  0  0  0
   -0.9311    2.5608   -0.0019 C   0  0  0  0  0  0  0  0  0  0  0  0
    0.9646   -1.9877   -0.0004 C   0  0  0  0  0  0  0  0  0  0  0  0
    2.5576    0.0904    0.0002 C   0  0  0  0  0  0  0  0  0  0  0  0
   -1.1810   -0.3138   -0.0032 C   0  0  0  0  0  0  0  0  0  0  0  0
   -2.2699    1.8912   -0.0011 C   0  0  0  0  0  0  0  0  0  0  0  0
   -2.3041    0.4070   -0.0030 C   0  0  0  0  0  0  0  0  0  0  0  0
    1.4896    2.4538   -0.0026 C   0  0  0  0  0  0  0  0  0  0  0  0
   -0.8463    3.9633   -0.0024 C   0  0  0  0  0  0  0  0  0  0  0  0
    0.8524   -2.6761   -1.2084 C   0  0  0  0  0  0  0  0  0  0  0  0
    3.1921    0.3785    1.2086 C   0  0  0  0  0  0  0  0  0  0  0  0
    0.8512   -2.6758    1.2076 C   0  0  0  0  0  0  0  0  0  0  0  0
    3.1938    0.3778   -1.2074 C   0  0  0  0  0  0  0  0  0  0  0  0
    0.5138   -4.7406   -0.0003 C   0  0  0  0  0  0  0  0  0  0  0  0
    5.0990    1.2409    0.0017 C   0  0  0  0  0  0  0  0  0  0  0  0
    0.6271   -4.0526   -1.2083 C   0  0  0  0  0  0  0  0  0  0  0  0
    4.4627    0.9536    1.2093 C   0  0  0  0  0  0  0  0  0  0  0  0
    0.6258   -4.0522    1.2077 C   0  0  0  0  0  0  0  0  0  0  0  0
    4.4644    0.9530   -1.2068 C   0  0  0  0  0  0  0  0  0  0  0  0
    1.5590    3.8477   -0.0028 C   0  0  0  0  0  0  0  0  0  0  0  0
    0.3934    4.6005   -0.0029 C   0  0  0  0  0  0  0  0  0  0  0  0
   -4.5534    1.8602    0.0011 C   0  0  0  0  0  0  0  0  0  0  0  0
    0.1605   -6.8558   -1.2500 C   0  0  0  0  0  0  0  0  0  0  0  0
    0.1669   -6.8566    1.2497 C   0  0  0  0  0  0  0  0  0  0  0  0
    7.0485    2.1323    1.2526 C   0  0  0  0  0  0  0  0  0  0  0  0
    7.0534    2.1245   -1.2470 C   0  0  0  0  0  0  0  0  0  0  0  0
   -5.1465    1.4943    1.2094 C   0  0  0  0  0  0  0  0  0  0  0  0
   -5.1483    1.4952   -1.2066 C   0  0  0  0  0  0  0  0  0  0  0  0
   -6.9294    0.3985    0.0023 C   0  0  0  0  0  0  0  0  0  0  0  0
   -6.3344    0.7635    1.2100 C   0  0  0  0  0  0  0  0  0  0  0  0
   -6.3362    0.7643   -1.2060 C   0  0  0  0  0  0  0  0  0  0  0  0
   -8.1996   -0.3831    0.0026 C   0  0  0  0  0  0  0  0  0  0  0  0
   -1.3342   -1.3865   -0.0045 H   0  0  0  0  0  0  0  0  0  0  0  0
   -3.2329   -0.1492   -0.0039 H   0  0  0  0  0  0  0  0  0  0  0  0
    2.4977    2.1583   -0.0030 H   0  0  0  0  0  0  0  0  0  0  0  0
   -1.7414    4.5801   -0.0024 H   0  0  0  0  0  0  0  0  0  0  0  0
    0.9387   -2.1535   -2.1581 H   0  0  0  0  0  0  0  0  0  0  0  0
    2.7097    0.1589    2.1582 H   0  0  0  0  0  0  0  0  0  0  0  0
    0.9364   -2.1529    2.1572 H   0  0  0  0  0  0  0  0  0  0  0  0
    2.7127    0.1577   -2.1575 H   0  0  0  0  0  0  0  0  0  0  0  0
    0.5475   -4.5422   -2.1738 H   0  0  0  0  0  0  0  0  0  0  0  0
    4.9138    1.1584    2.1751 H   0  0  0  0  0  0  0  0  0  0  0  0
    0.5449   -4.5415    2.1733 H   0  0  0  0  0  0  0  0  0  0  0  0
    4.9167    1.1576   -2.1720 H   0  0  0  0  0  0  0  0  0  0  0  0
    2.5226    4.3511   -0.0031 H   0  0  0  0  0  0  0  0  0  0  0  0
    0.4458    5.6853   -0.0032 H   0  0  0  0  0  0  0  0  0  0  0  0
   -0.6887   -6.4880   -1.8368 H   0  0  0  0  0  0  0  0  0  0  0  0
    1.0779   -6.7812   -1.8445 H   0  0  0  0  0  0  0  0  0  0  0  0
   -0.0159   -7.9243   -1.0834 H   0  0  0  0  0  0  0  0  0  0  0  0
   -0.6823   -6.4925    1.8387 H   0  0  0  0  0  0  0  0  0  0  0  0
    1.0855   -6.7782    1.8419 H   0  0  0  0  0  0  0  0  0  0  0  0
   -0.0052   -7.9259    1.0833 H   0  0  0  0  0  0  0  0  0  0  0  0
    6.4722    2.8572    1.8382 H   0  0  0  0  0  0  0  0  0  0  0  0
    7.2142    1.2274    1.8479 H   0  0  0  0  0  0  0  0  0  0  0  0
    8.0347    2.5802    1.0867 H   0  0  0  0  0  0  0  0  0  0  0  0
    7.2169    1.2167   -1.8383 H   0  0  0  0  0  0  0  0  0  0  0  0
    6.4817    2.8496   -1.8370 H   0  0  0  0  0  0  0  0  0  0  0  0
    8.0411    2.5687   -1.0800 H   0  0  0  0  0  0  0  0  0  0  0  0
   -4.6915    1.7752    2.1558 H   0  0  0  0  0  0  0  0  0  0  0  0
   -4.6947    1.7767   -2.1534 H   0  0  0  0  0  0  0  0  0  0  0  0
   -6.7878    0.4859    2.1579 H   0  0  0  0  0  0  0  0  0  0  0  0
   -6.7909    0.4873   -2.1534 H   0  0  0  0  0  0  0  0  0  0  0  0
   -9.0582    0.2957   -0.0034 H   0  0  0  0  0  0  0  0  0  0  0  0
   -8.2618   -1.0360   -0.8747 H   0  0  0  0  0  0  0  0  0  0  0  0
   -8.2674   -1.0269    0.8861 H   0  0  0  0  0  0  0  0  0  0  0  0
  1 19  1  0  0  0  0
  1 28  1  0  0  0  0
  1 29  1  0  0  0  0
  2 20  1  0  0  0  0
  2 30  1  0  0  0  0
  2 31  1  0  0  0  0
  3 11  2  0  0  0  0
  3 27  1  0  0  0  0
  4  5  2  0  0  0  0
  4  6  1  0  0  0  0
  4 10  1  0  0  0  0
  5  8  1  0  0  0  0
  5  9  1  0  0  0  0
  6  7  1  0  0  0  0
  6 13  2  0  0  0  0
  7 11  1  0  0  0  0
  7 14  2  0  0  0  0
  8 15  2  0  0  0  0
  8 17  1  0  0  0  0
  9 16  2  0  0  0  0
  9 18  1  0  0  0  0
 10 12  2  0  0  0  0
 10 38  1  0  0  0  0
 11 12  1  0  0  0  0
 12 39  1  0  0  0  0
 13 25  1  0  0  0  0
 13 40  1  0  0  0  0
 14 26  1  0  0  0  0
 14 41  1  0  0  0  0
 15 21  1  0  0  0  0
 15 42  1  0  0  0  0
 16 22  1  0  0  0  0
 16 43  1  0  0  0  0
 17 23  2  0  0  0  0
 17 44  1  0  0  0  0
 18 24  2  0  0  0  0
 18 45  1  0  0  0  0
 19 21  2  0  0  0  0
 19 23  1  0  0  0  0
 20 22  2  0  0  0  0
 20 24  1  0  0  0  0
 21 46  1  0  0  0  0
 22 47  1  0  0  0  0
 23 48  1  0  0  0  0
 24 49  1  0  0  0  0
 25 26  2  0  0  0  0
 25 50  1  0  0  0  0
 26 51  1  0  0  0  0
 27 32  2  0  0  0  0
 27 33  1  0  0  0  0
 28 52  1  0  0  0  0
 28 53  1  0  0  0  0
 28 54  1  0  0  0  0
 29 55  1  0  0  0  0
 29 56  1  0  0  0  0
 29 57  1  0  0  0  0
 30 58  1  0  0  0  0
 30 59  1  0  0  0  0
 30 60  1  0  0  0  0
 31 61  1  0  0  0  0
 31 62  1  0  0  0  0
 31 63  1  0  0  0  0
 32 35  1  0  0  0  0
 32 64  1  0  0  0  0
 33 36  2  0  0  0  0
 33 65  1  0  0  0  0
 34 35  2  0  0  0  0
 34 36  1  0  0  0  0
 34 37  1  0  0  0  0
 35 66  1  0  0  0  0
 36 67  1  0  0  0  0
 37 68  1  0  0  0  0
 37 69  1  0  0  0  0
 37 70  1  0  0  0  0
M  END
> <PUBCHEM_COMPOUND_CID>
101140023

> <PUBCHEM_CONFORMER_RMSD>
0.8

> <PUBCHEM_CONFORMER_DIVERSEORDER>
1
4
2
3

> <PUBCHEM_MMFF94_PARTIAL_CHARGES>
55
1 -0.84
10 -0.15
11 0.35
12 -0.14
13 -0.15
14 -0.15
15 -0.15
16 -0.15
17 -0.15
18 -0.15
19 0.1
2 -0.84
20 0.1
21 -0.15
22 -0.15
23 -0.15
24 -0.15
25 -0.15
26 -0.15
27 0.18
28 0.37
29 0.37
3 -0.63
30 0.37
31 0.37
32 -0.15
33 -0.15
34 -0.14
35 -0.15
36 -0.15
37 0.14
38 0.15
39 0.15
4 -0.03
40 0.15
41 0.15
42 0.15
43 0.15
44 0.15
45 0.15
46 0.15
47 0.15
48 0.15
49 0.15
5 -0.06
50 0.15
51 0.15
6 0.03
64 0.15
65 0.15
66 0.15
67 0.15
7 0.09
8 0.03
9 0.03

> <PUBCHEM_EFFECTIVE_ROTOR_COUNT>
5

> <PUBCHEM_PHARMACOPHORE_FEATURES>
8
1 1 cation
1 2 cation
1 3 acceptor
6 27 32 33 34 35 36 rings
6 4 6 7 10 11 12 rings
6 6 7 13 14 25 26 rings
6 8 15 17 19 21 23 rings
6 9 16 18 20 22 24 rings

> <PUBCHEM_HEAVY_ATOM_COUNT>
37

> <PUBCHEM_ATOM_DEF_STEREO_COUNT>
0

> <PUBCHEM_ATOM_UDEF_STEREO_COUNT>
0

> <PUBCHEM_BOND_DEF_STEREO_COUNT>
0

> <PUBCHEM_BOND_UDEF_STEREO_COUNT>
0

> <PUBCHEM_ISOTOPIC_ATOM_COUNT>
0

> <PUBCHEM_COMPONENT_COUNT>
1

> <PUBCHEM_CACTVS_TAUTO_COUNT>
7

> <PUBCHEM_CONFORMER_ID>
0607463700000001

> <PUBCHEM_MMFF94_ENERGY>
203.5876

> <PUBCHEM_FEATURE_SELFOVERLAP>
40.618

> <PUBCHEM_SHAPE_FINGERPRINT>
10010297 198 18124876764032464557
10074138 170 18124287619368774674
10169797 241 18044676204165248539
102385 1 17617661398383702788
10290309 65 18336543798576313388
10319688 45 16464173086900526674
10580692 12 18410576164314886537
1100329 8 18266177412684302576
11135926 11 18409722933778073221
11136131 41 18191017911475962090
11421498 54 17917714544022311681
11445158 3 17894631495529740437
11719270 70 18408599241009614785
11991303 11 18189340245968623108
13140716 1 18339079405908939225
1361 2 18412546509444380041
13692114 37 18267298919155865939
13911987 19 18262254281802204597
14068700 686 18263360300532332613
14790565 3 18410580599755664652
14863182 85 18337399248750758908
15131766 46 15504368066115476748
15444296 8 17693671720007522662
15927050 60 17832994114964590740
16090146 7 18199770153193392352
16728300 4 17461973528850928400
17492 89 17906168452497326975
17909252 39 18050575040776268187
18365409 1 18267022949778395126
19304144 158 17895461536857185941
19319366 153 18411694361767541350
20028762 73 18343302608838359805
21344244 181 18342189830230959278
21703447 108 18048877390548905763
22149856 69 18265914488283124329
22311459 1 18411138035434820849
22956985 138 17903630783634088970
23516275 137 16629427824749661855
23559900 14 17544468661647796449
23569917 315 18411704249273438214
24180151 214 17917439708811579955
24771293 8 18273213127361159768
25222932 49 18342735196656648119
3103668 31 18049165758869869359
3178227 256 18409173237941181729
3383291 50 18410855503495248744
4461854 278 18267039421606287923
6058803 2 17769093445790281313
6673363 416 17260193191085706438
6700243 42 17479218522988125724
70251023 43 17834122944201932323

> <PUBCHEM_SHAPE_MULTIPOLES>
746.5
15.06
8.81
1.26
13.27
22.03
0
-15.3
0.02
-3.45
0
-0.44
0.66
0

> <PUBCHEM_SHAPE_SELFOVERLAP>
1648.807

> <PUBCHEM_SHAPE_VOLUME>
399.3

> <PUBCHEM_COORDINATE_TYPE>
2
5
10

$$$$
