73660
  -OEChem-02172602373D

 67 70  0     1  0  0  0  0  0999 V2000
    4.0057    0.3649   -2.1852 O   0  0  0  0  0  0  0  0  0  0  0  0
    1.4927    0.1356   -2.9042 O   0  0  0  0  0  0  0  0  0  0  0  0
    2.9116   -2.2115   -0.9031 O   0  0  0  0  0  0  0  0  0  0  0  0
   -0.7401   -1.1639   -2.0427 O   0  0  0  0  0  0  0  0  0  0  0  0
    6.1067   -0.0264    1.8602 O   0  0  0  0  0  0  0  0  0  0  0  0
   -3.3339   -0.9402   -1.7461 O   0  0  0  0  0  0  0  0  0  0  0  0
    4.3875   -3.5464    0.4495 O   0  0  0  0  0  0  0  0  0  0  0  0
   -6.8078    0.2471    1.7147 O   0  0  0  0  0  0  0  0  0  0  0  0
    5.6830    1.8650   -0.3968 N   0  0  0  0  0  0  0  0  0  0  0  0
    5.9503   -2.5685    1.8904 N   0  0  0  0  0  0  0  0  0  0  0  0
   -5.4807   -0.4448   -0.0992 N   0  0  0  0  0  0  0  0  0  0  0  0
   -9.0488    0.0185    0.1268 N   0  0  0  0  0  0  0  0  0  0  0  0
    3.2677    1.3132   -0.0819 C   0  0  1  0  0  0  0  0  0  0  0  0
    3.0998    0.1758   -1.1039 C   0  0  1  0  0  0  0  0  0  0  0  0
    2.1938    1.2076    1.0192 C   0  0  0  0  0  0  0  0  0  0  0  0
    0.7605    1.2518    0.4595 C   0  0  1  0  0  0  0  0  0  0  0  0
    4.6780    1.3704    0.5440 C   0  0  1  0  0  0  0  0  0  0  0  0
    0.5572    0.3440   -0.7284 C   0  0  0  0  0  0  0  0  0  0  0  0
    1.6942    0.2163   -1.6933 C   0  0  0  0  0  0  0  0  0  0  0  0
   -0.2237    0.9384    1.6057 C   0  0  0  0  0  0  0  0  0  0  0  0
    3.4637   -1.1812   -0.5188 C   0  0  0  0  0  0  0  0  0  0  0  0
    5.1793    0.0270    1.0515 C   0  0  0  0  0  0  0  0  0  0  0  0
    4.5497   -1.2127    0.5060 C   0  0  0  0  0  0  0  0  0  0  0  0
   -0.6022   -0.2928   -0.9796 C   0  0  0  0  0  0  0  0  0  0  0  0
   -1.6076    0.5885    1.1235 C   0  0  0  0  0  0  0  0  0  0  0  0
   -1.7845   -0.0436   -0.1232 C   0  0  0  0  0  0  0  0  0  0  0  0
    6.9744    2.0219    0.2710 C   0  0  0  0  0  0  0  0  0  0  0  0
    5.2530    3.1338   -0.9833 C   0  0  0  0  0  0  0  0  0  0  0  0
   -2.7111    0.8334    1.9549 C   0  0  0  0  0  0  0  0  0  0  0  0
   -3.0891   -0.3744   -0.5250 C   0  0  0  0  0  0  0  0  0  0  0  0
    4.9731   -2.4019    0.9571 C   0  0  0  0  0  0  0  0  0  0  0  0
   -4.1839   -0.1132    0.3030 C   0  0  0  0  0  0  0  0  0  0  0  0
   -3.9949    0.4858    1.5436 C   0  0  0  0  0  0  0  0  0  0  0  0
   -6.6824   -0.2522    0.6011 C   0  0  0  0  0  0  0  0  0  0  0  0
   -7.8645   -0.7598   -0.2064 C   0  0  0  0  0  0  0  0  0  0  0  0
  -10.2075   -0.4487   -0.6377 C   0  0  0  0  0  0  0  0  0  0  0  0
   -8.8192    1.4434   -0.1231 C   0  0  0  0  0  0  0  0  0  0  0  0
    3.0330    2.2608   -0.5789 H   0  0  0  0  0  0  0  0  0  0  0  0
    2.3147    2.0359    1.7299 H   0  0  0  0  0  0  0  0  0  0  0  0
    2.3395    0.2869    1.5983 H   0  0  0  0  0  0  0  0  0  0  0  0
    0.5648    2.2748    0.1063 H   0  0  0  0  0  0  0  0  0  0  0  0
    4.6242    2.0359    1.4184 H   0  0  0  0  0  0  0  0  0  0  0  0
   -0.2662    1.8053    2.2774 H   0  0  0  0  0  0  0  0  0  0  0  0
    0.1352    0.0874    2.2001 H   0  0  0  0  0  0  0  0  0  0  0  0
    3.8639   -0.3496   -2.8299 H   0  0  0  0  0  0  0  0  0  0  0  0
    7.4930    1.0669    0.3968 H   0  0  0  0  0  0  0  0  0  0  0  0
    6.9011    2.5426    1.2328 H   0  0  0  0  0  0  0  0  0  0  0  0
    7.6615    2.6054   -0.3555 H   0  0  0  0  0  0  0  0  0  0  0  0
    6.0806    3.6049   -1.5286 H   0  0  0  0  0  0  0  0  0  0  0  0
    4.9112    3.8531   -0.2300 H   0  0  0  0  0  0  0  0  0  0  0  0
    4.4809    3.0011   -1.7469 H   0  0  0  0  0  0  0  0  0  0  0  0
   -2.5714    1.2979    2.9280 H   0  0  0  0  0  0  0  0  0  0  0  0
    0.1155   -1.2891   -2.4831 H   0  0  0  0  0  0  0  0  0  0  0  0
   -4.7820    0.7162    2.2461 H   0  0  0  0  0  0  0  0  0  0  0  0
    6.4227   -1.7800    2.3102 H   0  0  0  0  0  0  0  0  0  0  0  0
    6.2076   -3.5055    2.1739 H   0  0  0  0  0  0  0  0  0  0  0  0
   -2.5329   -0.9307   -2.2921 H   0  0  0  0  0  0  0  0  0  0  0  0
    4.8219   -4.2951    0.8928 H   0  0  0  0  0  0  0  0  0  0  0  0
   -5.5415   -0.8844   -1.0152 H   0  0  0  0  0  0  0  0  0  0  0  0
   -8.0060   -1.8135    0.0621 H   0  0  0  0  0  0  0  0  0  0  0  0
   -7.6462   -0.7079   -1.2805 H   0  0  0  0  0  0  0  0  0  0  0  0
  -10.0672   -0.3273   -1.7180 H   0  0  0  0  0  0  0  0  0  0  0  0
  -11.1100    0.0980   -0.3424 H   0  0  0  0  0  0  0  0  0  0  0  0
  -10.4011   -1.5074   -0.4317 H   0  0  0  0  0  0  0  0  0  0  0  0
   -8.5126    1.6340   -1.1586 H   0  0  0  0  0  0  0  0  0  0  0  0
   -8.0784    1.8916    0.5444 H   0  0  0  0  0  0  0  0  0  0  0  0
   -9.7420    2.0085    0.0571 H   0  0  0  0  0  0  0  0  0  0  0  0
  1 14  1  0  0  0  0
  1 45  1  0  0  0  0
  2 19  2  0  0  0  0
  3 21  2  0  0  0  0
  4 24  1  0  0  0  0
  4 53  1  0  0  0  0
  5 22  2  0  0  0  0
  6 30  1  0  0  0  0
  6 57  1  0  0  0  0
  7 31  1  0  0  0  0
  7 58  1  0  0  0  0
  8 34  2  0  0  0  0
  9 17  1  0  0  0  0
  9 27  1  0  0  0  0
  9 28  1  0  0  0  0
 10 31  1  0  0  0  0
 10 55  1  0  0  0  0
 10 56  1  0  0  0  0
 11 32  1  0  0  0  0
 11 34  1  0  0  0  0
 11 59  1  0  0  0  0
 12 35  1  0  0  0  0
 12 36  1  0  0  0  0
 12 37  1  0  0  0  0
 13 14  1  0  0  0  0
 13 15  1  0  0  0  0
 13 17  1  0  0  0  0
 13 38  1  0  0  0  0
 14 19  1  0  0  0  0
 14 21  1  0  0  0  0
 15 16  1  0  0  0  0
 15 39  1  0  0  0  0
 15 40  1  0  0  0  0
 16 18  1  0  0  0  0
 16 20  1  0  0  0  0
 16 41  1  0  0  0  0
 17 22  1  0  0  0  0
 17 42  1  0  0  0  0
 18 19  1  0  0  0  0
 18 24  2  0  0  0  0
 20 25  1  0  0  0  0
 20 43  1  0  0  0  0
 20 44  1  0  0  0  0
 21 23  1  0  0  0  0
 22 23  1  0  0  0  0
 23 31  2  3  0  0  0
 24 26  1  0  0  0  0
 25 26  2  0  0  0  0
 25 29  1  0  0  0  0
 26 30  1  0  0  0  0
 27 46  1  0  0  0  0
 27 47  1  0  0  0  0
 27 48  1  0  0  0  0
 28 49  1  0  0  0  0
 28 50  1  0  0  0  0
 28 51  1  0  0  0  0
 29 33  2  0  0  0  0
 29 52  1  0  0  0  0
 30 32  2  0  0  0  0
 32 33  1  0  0  0  0
 33 54  1  0  0  0  0
 34 35  1  0  0  0  0
 35 60  1  0  0  0  0
 35 61  1  0  0  0  0
 36 62  1  0  0  0  0
 36 63  1  0  0  0  0
 36 64  1  0  0  0  0
 37 65  1  0  0  0  0
 37 66  1  0  0  0  0
 37 67  1  0  0  0  0
M  END
> <PUBCHEM_COMPOUND_CID>
73660

> <PUBCHEM_CONFORMER_RMSD>
0.8

> <PUBCHEM_CONFORMER_DIVERSEORDER>
4
3
10
8
6
1
5
9
2
7

> <PUBCHEM_MMFF94_PARTIAL_CHARGES>
44
1 -0.68
10 -0.9
11 -0.55
12 -0.81
14 0.4
16 0.14
17 0.33
18 -0.12
19 0.49
2 -0.57
20 0.14
21 0.49
22 0.49
23 0.03
24 0.05
25 -0.14
26 0.03
27 0.27
28 0.27
29 -0.15
3 -0.57
30 0.08
31 0.18
32 0.12
33 -0.15
34 0.57
35 0.33
36 0.27
37 0.27
4 -0.53
45 0.4
5 -0.57
52 0.15
53 0.45
54 0.15
55 0.4
56 0.4
57 0.45
58 0.45
59 0.37
6 -0.53
7 -0.53
8 -0.57
9 -0.81

> <PUBCHEM_EFFECTIVE_ROTOR_COUNT>
5.6

> <PUBCHEM_PHARMACOPHORE_FEATURES>
19
1 1 acceptor
1 1 donor
1 10 cation
1 10 donor
1 11 donor
1 12 cation
1 2 acceptor
1 3 acceptor
1 4 donor
1 5 acceptor
1 6 donor
1 7 donor
1 8 acceptor
1 9 cation
3 7 10 31 anion
6 13 14 15 16 18 19 rings
6 13 14 17 21 22 23 rings
6 16 18 20 24 25 26 rings
6 25 26 29 30 32 33 rings

> <PUBCHEM_HEAVY_ATOM_COUNT>
37

> <PUBCHEM_ATOM_DEF_STEREO_COUNT>
4

> <PUBCHEM_ATOM_UDEF_STEREO_COUNT>
0

> <PUBCHEM_BOND_DEF_STEREO_COUNT>
0

> <PUBCHEM_BOND_UDEF_STEREO_COUNT>
1

> <PUBCHEM_ISOTOPIC_ATOM_COUNT>
0

> <PUBCHEM_COMPONENT_COUNT>
1

> <PUBCHEM_CACTVS_TAUTO_COUNT>
840

> <PUBCHEM_CONFORMER_ID>
00011FBC00000004

> <PUBCHEM_MMFF94_ENERGY>
127.9307

> <PUBCHEM_FEATURE_SELFOVERLAP>
96.598

> <PUBCHEM_SHAPE_FINGERPRINT>
10 15 17489585675611613035
10165383 225 18187649163643600644
10951579 204 16371846232522675583
10952577 141 16736949231173388340
11181472 205 18334864883440154805
11719270 70 17418095399841338143
11828532 37 14779565503594816785
12373685 5 18337667615978217051
12664476 115 14117802418684020058
12741549 16 17676477359636007716
12838862 33 17132105845419235593
13533116 47 18409729552053547130
13560911 43 17917996096572151953
13617811 41 17060626619877341232
13782708 43 17313114063986292323
13811026 1 17894904110684887469
13914758 101 18187365386189716913
14118638 360 18342184349082881065
14251764 18 17489591173718293777
14341114 328 17989203750941653010
14347424 109 18334574633401425768
15131766 46 17976259359151394372
15183329 4 17775292664494118089
15510794 2 17749392590260235851
18365409 1 14332830656755350301
18681886 176 16702024240437842840
19315958 150 17967536800046813730
19841028 212 18336261237058065938
21344244 78 18271799083041398400
21792934 111 16845012304087015115
23523787 8 17755343147285615294
23559900 14 16413812383709786524
23569943 247 16952521382619603587
3004659 81 17704080611582141657
335352 9 16988566852881249561
34797466 226 16371010719290693518
3633792 109 18040995112496973609
4093350 32 17822009826293284296
4340502 62 18334015034250372030
474113 269 18338511920675664699
8988823 20 18333170574865744632
9831232 110 16660650635348770091

> <PUBCHEM_SHAPE_MULTIPOLES>
694.56
24.09
2.26
1.91
56.47
0.84
-0.42
-1
2.97
-5.89
0.25
-1.08
0.13
-2.1

> <PUBCHEM_SHAPE_SELFOVERLAP>
1515.88

> <PUBCHEM_SHAPE_VOLUME>
370

> <PUBCHEM_COORDINATE_TYPE>
2
5
10

$$$$
