10141651
  -OEChem-02172602533D

 63 67  0     1  0  0  0  0  0999 V2000
   -0.2581   -0.0823   -1.7787 O   0  0  0  0  0  0  0  0  0  0  0  0
    5.8168    2.3578    1.1964 O   0  0  0  0  0  0  0  0  0  0  0  0
    0.9610   -0.8434    1.6865 O   0  0  0  0  0  0  0  0  0  0  0  0
    6.8319    2.7012   -0.9620 O   0  0  0  0  0  0  0  0  0  0  0  0
    3.0389   -2.5509   -1.2598 O   0  0  0  0  0  0  0  0  0  0  0  0
   -1.5254    1.6377   -0.8606 N   0  0  0  0  0  0  0  0  0  0  0  0
   -0.6325   -1.7414    0.2576 N   0  0  0  0  0  0  0  0  0  0  0  0
   -2.8436   -0.9985   -0.1252 N   0  0  0  0  0  0  0  0  0  0  0  0
    2.6606   -2.8946    1.0054 N   0  0  0  0  0  0  0  0  0  0  0  0
   -1.4959   -0.5914    0.2126 C   0  0  2  0  0  0  0  0  0  0  0  0
   -2.5349    2.0869    0.0593 C   0  0  0  0  0  0  0  0  0  0  0  0
   -3.5719    1.2558    0.5308 C   0  0  0  0  0  0  0  0  0  0  0  0
   -3.7865   -0.1297    0.0182 C   0  0  0  0  0  0  0  0  0  0  0  0
   -1.0338    0.3238   -0.9090 C   0  0  0  0  0  0  0  0  0  0  0  0
    1.2425   -3.1233    0.9142 C   0  0  2  0  0  0  0  0  0  0  0  0
    0.5419   -1.7739    1.0013 C   0  0  0  0  0  0  0  0  0  0  0  0
   -5.1636   -0.5512   -0.3695 C   0  0  0  0  0  0  0  0  0  0  0  0
   -2.5146    3.4220    0.5092 C   0  0  0  0  0  0  0  0  0  0  0  0
   -4.4968    1.7352    1.4763 C   0  0  0  0  0  0  0  0  0  0  0  0
   -0.9314    2.6258   -1.7619 C   0  0  0  0  0  0  0  0  0  0  0  0
    4.9049   -2.4194    0.2785 C   0  0  0  0  0  0  0  0  0  0  0  0
    0.7611   -4.0577    2.0132 C   0  0  0  0  0  0  0  0  0  0  0  0
    5.4332   -1.0578   -0.0878 C   0  0  0  0  0  0  0  0  0  0  0  0
    3.4519   -2.6235   -0.1052 C   0  0  0  0  0  0  0  0  0  0  0  0
   -3.4489    3.8969    1.4332 C   0  0  0  0  0  0  0  0  0  0  0  0
   -4.4323    3.0504    1.9257 C   0  0  0  0  0  0  0  0  0  0  0  0
    5.3311   -0.0057    0.8255 C   0  0  0  0  0  0  0  0  0  0  0  0
    5.8293    1.2234    0.4448 C   0  0  0  0  0  0  0  0  0  0  0  0
   -5.5442   -1.8877   -0.2478 C   0  0  0  0  0  0  0  0  0  0  0  0
   -6.0710    0.3909   -0.8542 C   0  0  0  0  0  0  0  0  0  0  0  0
    6.4089    1.4196   -0.7879 C   0  0  0  0  0  0  0  0  0  0  0  0
    6.0254   -0.8574   -1.3471 C   0  0  0  0  0  0  0  0  0  0  0  0
    6.5222    0.3975   -1.7077 C   0  0  0  0  0  0  0  0  0  0  0  0
   -6.8321   -2.2818   -0.6108 C   0  0  0  0  0  0  0  0  0  0  0  0
   -7.3588   -0.0033   -1.2171 C   0  0  0  0  0  0  0  0  0  0  0  0
    6.4541    3.2899    0.2990 C   0  0  0  0  0  0  0  0  0  0  0  0
   -7.7393   -1.3396   -1.0954 C   0  0  0  0  0  0  0  0  0  0  0  0
   -1.4249   -0.0921    1.1858 H   0  0  0  0  0  0  0  0  0  0  0  0
    1.0321   -3.5774   -0.0616 H   0  0  0  0  0  0  0  0  0  0  0  0
   -0.9049   -2.5546   -0.2861 H   0  0  0  0  0  0  0  0  0  0  0  0
   -1.7469    4.1180    0.1799 H   0  0  0  0  0  0  0  0  0  0  0  0
   -5.2780    1.0930    1.8760 H   0  0  0  0  0  0  0  0  0  0  0  0
    3.0744   -2.8606    1.9325 H   0  0  0  0  0  0  0  0  0  0  0  0
   -0.1676    3.1906   -1.2184 H   0  0  0  0  0  0  0  0  0  0  0  0
   -1.7036    3.2957   -2.1530 H   0  0  0  0  0  0  0  0  0  0  0  0
   -0.4468    2.1392   -2.6135 H   0  0  0  0  0  0  0  0  0  0  0  0
    5.0654   -2.5951    1.3492 H   0  0  0  0  0  0  0  0  0  0  0  0
    5.4881   -3.1975   -0.2305 H   0  0  0  0  0  0  0  0  0  0  0  0
    1.2782   -5.0217    1.9605 H   0  0  0  0  0  0  0  0  0  0  0  0
   -0.3155   -4.2399    1.9291 H   0  0  0  0  0  0  0  0  0  0  0  0
    0.9475   -3.6331    3.0063 H   0  0  0  0  0  0  0  0  0  0  0  0
   -3.3968    4.9266    1.7751 H   0  0  0  0  0  0  0  0  0  0  0  0
   -5.1522    3.4142    2.6525 H   0  0  0  0  0  0  0  0  0  0  0  0
    4.8748   -0.1441    1.7998 H   0  0  0  0  0  0  0  0  0  0  0  0
   -4.8584   -2.6388    0.1349 H   0  0  0  0  0  0  0  0  0  0  0  0
   -5.7999    1.4335   -0.9941 H   0  0  0  0  0  0  0  0  0  0  0  0
    6.1008   -1.6791   -2.0551 H   0  0  0  0  0  0  0  0  0  0  0  0
    6.9787    0.5563   -2.6781 H   0  0  0  0  0  0  0  0  0  0  0  0
   -7.1293   -3.3221   -0.5147 H   0  0  0  0  0  0  0  0  0  0  0  0
   -8.0630    0.7286   -1.6016 H   0  0  0  0  0  0  0  0  0  0  0  0
    7.3533    3.6859    0.7849 H   0  0  0  0  0  0  0  0  0  0  0  0
    5.7638    4.1192    0.1064 H   0  0  0  0  0  0  0  0  0  0  0  0
   -8.7416   -1.6468   -1.3794 H   0  0  0  0  0  0  0  0  0  0  0  0
  1 14  2  0  0  0  0
  2 28  1  0  0  0  0
  2 36  1  0  0  0  0
  3 16  2  0  0  0  0
  4 31  1  0  0  0  0
  4 36  1  0  0  0  0
  5 24  2  0  0  0  0
  6 11  1  0  0  0  0
  6 14  1  0  0  0  0
  6 20  1  0  0  0  0
  7 10  1  0  0  0  0
  7 16  1  0  0  0  0
  7 40  1  0  0  0  0
  8 10  1  0  0  0  0
  8 13  2  0  0  0  0
  9 15  1  0  0  0  0
  9 24  1  0  0  0  0
  9 43  1  0  0  0  0
 10 14  1  0  0  0  0
 10 38  1  0  0  0  0
 11 12  1  0  0  0  0
 11 18  2  0  0  0  0
 12 13  1  0  0  0  0
 12 19  2  0  0  0  0
 13 17  1  0  0  0  0
 15 16  1  0  0  0  0
 15 22  1  0  0  0  0
 15 39  1  0  0  0  0
 17 29  2  0  0  0  0
 17 30  1  0  0  0  0
 18 25  1  0  0  0  0
 18 41  1  0  0  0  0
 19 26  1  0  0  0  0
 19 42  1  0  0  0  0
 20 44  1  0  0  0  0
 20 45  1  0  0  0  0
 20 46  1  0  0  0  0
 21 23  1  0  0  0  0
 21 24  1  0  0  0  0
 21 47  1  0  0  0  0
 21 48  1  0  0  0  0
 22 49  1  0  0  0  0
 22 50  1  0  0  0  0
 22 51  1  0  0  0  0
 23 27  2  0  0  0  0
 23 32  1  0  0  0  0
 25 26  2  0  0  0  0
 25 52  1  0  0  0  0
 26 53  1  0  0  0  0
 27 28  1  0  0  0  0
 27 54  1  0  0  0  0
 28 31  2  0  0  0  0
 29 34  1  0  0  0  0
 29 55  1  0  0  0  0
 30 35  2  0  0  0  0
 30 56  1  0  0  0  0
 31 33  1  0  0  0  0
 32 33  2  0  0  0  0
 32 57  1  0  0  0  0
 33 58  1  0  0  0  0
 34 37  2  0  0  0  0
 34 59  1  0  0  0  0
 35 37  1  0  0  0  0
 35 60  1  0  0  0  0
 36 61  1  0  0  0  0
 36 62  1  0  0  0  0
 37 63  1  0  0  0  0
M  END
> <PUBCHEM_COMPOUND_CID>
10141651

> <PUBCHEM_CONFORMER_RMSD>
1.2

> <PUBCHEM_CONFORMER_DIVERSEORDER>
1
408
112
154
43
451
97
78
344
307
22
675
438
367
728
298
120
206
432
25
62
165
63
577
189
453
103
660
219
312
436
83
494
4
413
712
107
133
51
214
393
225
178
291
649
241
20
329
46
380
67
630
465
155
492
718
295
113
110
12
470
682
248
331
210
420
680
166
230
36
381
512
445
378
197
91
82
95
226
182
616
545
353
555
104
87
242
272
372
109
186
238
235
421
159
599
188
80
638
301
542
201
173
13
277
560
601
613
240
567
574
33
2
388
183
164
138
493
645
18
125
184
49
323
693
343
509
236
394
440
229
387
279
228
79
402
129
116
498
296
216
199
454
385
10
98
544
683
39
476
502
24
604
251
540
58
150
181
180
572
274
431
261
400
205
202
316
368
196
30
41
88
521
172
396
471
361
391
559
84
687
289
124
581
733
54
215
672
736
93
499
437
354
141
68
15
72
145
5
7
191
467
674
282
254
290
407
605
28
703
337
260
101
222
115
174
38
275
259
121
284
374
42
262
57
423
45
479
596
475
414
142
105
569
70
257
96
198
31
127
715
26
250
220
358
9
709
73
122
726
171
642

> <PUBCHEM_MMFF94_PARTIAL_CHARGES>
50
1 -0.57
10 0.61
11 0.12
12 0.09
13 0.28
14 0.57
15 0.36
16 0.57
17 0.09
18 -0.15
19 -0.15
2 -0.36
20 0.3
21 0.2
23 -0.14
24 0.57
25 -0.15
26 -0.15
27 -0.15
28 0.08
29 -0.15
3 -0.57
30 -0.15
31 0.08
32 -0.15
33 -0.15
34 -0.15
35 -0.15
36 0.56
37 -0.15
4 -0.36
40 0.37
41 0.15
42 0.15
43 0.37
5 -0.57
52 0.15
53 0.15
54 0.15
55 0.15
56 0.15
57 0.15
58 0.15
59 0.15
6 -0.48
60 0.15
63 0.15
7 -0.73
8 -0.7
9 -0.73

> <PUBCHEM_EFFECTIVE_ROTOR_COUNT>
9

> <PUBCHEM_PHARMACOPHORE_FEATURES>
13
1 1 acceptor
1 2 acceptor
1 3 acceptor
1 4 acceptor
1 5 acceptor
1 7 donor
1 8 acceptor
1 9 donor
5 2 4 28 31 36 rings
6 11 12 18 19 25 26 rings
6 17 29 30 34 35 37 rings
6 23 27 28 31 32 33 rings
7 6 8 10 11 12 13 14 rings

> <PUBCHEM_HEAVY_ATOM_COUNT>
37

> <PUBCHEM_ATOM_DEF_STEREO_COUNT>
1

> <PUBCHEM_ATOM_UDEF_STEREO_COUNT>
1

> <PUBCHEM_BOND_DEF_STEREO_COUNT>
0

> <PUBCHEM_BOND_UDEF_STEREO_COUNT>
0

> <PUBCHEM_ISOTOPIC_ATOM_COUNT>
0

> <PUBCHEM_COMPONENT_COUNT>
1

> <PUBCHEM_CACTVS_TAUTO_COUNT>
4

> <PUBCHEM_CONFORMER_ID>
009ABFD300000001

> <PUBCHEM_MMFF94_ENERGY>
125.7358

> <PUBCHEM_FEATURE_SELFOVERLAP>
66.143

> <PUBCHEM_SHAPE_FINGERPRINT>
10838868 160 18201150048950110552
11007060 377 18340777012927204659
11101153 10 18413670206054196265
11387372 6 12319444516367549781
11578080 2 16414089465462382369
12120059 20 18189328134594177267
12373685 5 12829495878243144659
131258 43 18201435952454431259
1361 2 18261394477326985888
13617811 41 18113897203931436068
14004852 352 18129647742158936256
14068700 686 18271814484224857375
1454969 45 18413103966272280303
14664723 55 18043266811285077396
14784336 7 18339365296143496741
14790565 3 18338521815989774722
15289351 153 18411136936450187954
15351339 4 18412542111683076672
16096371 109 16588019079282501770
16991971 28 18059001926358526711
16993089 31 13901899017225529189
21796203 349 18197235835512349195
23516275 100 18338793550403885100
3552219 110 17918003793496106459
3633792 109 18114455679140260325
3918712 181 18335412504618081264
3986486 107 18199210442536141884
4625314 4 18269836424193448103
497634 4 18268988696665229407
550186 72 18410856525729386025
5776283 40 18055634165029148840
9961470 85 17903638823744464004

> <PUBCHEM_SHAPE_MULTIPOLES>
712.17
21.42
4.86
1.67
7.61
0.92
0.12
4.05
-6.48
1.47
2.23
-0.08
0.2
-2.64

> <PUBCHEM_SHAPE_SELFOVERLAP>
1560.732

> <PUBCHEM_SHAPE_VOLUME>
381.3

> <PUBCHEM_COORDINATE_TYPE>
2
5
10

$$$$
