162234
  -OEChem-02172602533D

 45 48  0     1  0  0  0  0  0999 V2000
   -0.0193   -4.1755    0.5738 P   0  0  2  0  0  0  0  0  0  0  0  0
   -0.6942   -0.5288   -1.6488 O   0  0  0  0  0  0  0  0  0  0  0  0
    0.5486   -2.6882    0.9120 O   0  0  0  0  0  0  0  0  0  0  0  0
    1.8638   -0.3108    0.2757 O   0  0  0  0  0  0  0  0  0  0  0  0
   -0.4116   -4.1504   -1.0033 O   0  0  0  0  0  0  0  0  0  0  0  0
   -1.4490   -4.2416    1.3308 O   0  0  0  0  0  0  0  0  0  0  0  0
    0.9120   -5.2905    0.9552 O   0  0  0  0  0  0  0  0  0  0  0  0
    2.0061    1.9868    0.4171 O   0  0  0  0  0  0  0  0  0  0  0  0
    7.0860    2.7135    0.0447 O   0  0  0  0  0  0  0  0  0  0  0  0
    6.7622    0.4770   -0.1914 O   0  0  0  0  0  0  0  0  0  0  0  0
   -1.2623    1.3998   -0.3714 N   0  0  0  0  0  0  0  0  0  0  0  0
   -2.2861    3.2993    0.1904 N   0  0  0  0  0  0  0  0  0  0  0  0
   -3.1583   -0.1184   -0.3456 N   0  0  0  0  0  0  0  0  0  0  0  0
   -5.2190    1.0465    0.2485 N   0  0  0  0  0  0  0  0  0  0  0  0
   -5.2774    3.3902    0.7284 N   0  0  0  0  0  0  0  0  0  0  0  0
   -0.1586   -1.6160    0.3310 C   0  0  1  0  0  0  0  0  0  0  0  0
    0.4527   -0.2394    0.4573 C   0  0  2  0  0  0  0  0  0  0  0  0
   -0.1988   -1.7789   -1.1740 C   0  0  1  0  0  0  0  0  0  0  0  0
   -0.1811    0.4870   -0.7444 C   0  0  1  0  0  0  0  0  0  0  0  0
   -1.0323   -2.9866   -1.5521 C   0  0  0  0  0  0  0  0  0  0  0  0
   -2.5809    1.0843   -0.2045 C   0  0  0  0  0  0  0  0  0  0  0  0
   -1.1354    2.7411   -0.1225 C   0  0  0  0  0  0  0  0  0  0  0  0
   -3.1983    2.2752    0.1429 C   0  0  0  0  0  0  0  0  0  0  0  0
    2.5256    0.8885    0.2760 C   0  0  0  0  0  0  0  0  0  0  0  0
    4.0039    0.6364    0.0707 C   0  0  0  0  0  0  0  0  0  0  0  0
   -4.5697    2.2290    0.3728 C   0  0  0  0  0  0  0  0  0  0  0  0
    4.8428    1.9066    0.1413 C   0  0  0  0  0  0  0  0  0  0  0  0
   -4.4839   -0.0378   -0.0978 C   0  0  0  0  0  0  0  0  0  0  0  0
    6.3124    1.6015   -0.0129 C   0  0  0  0  0  0  0  0  0  0  0  0
   -1.1699   -1.5869    0.7527 H   0  0  0  0  0  0  0  0  0  0  0  0
    0.2457    0.2139    1.4334 H   0  0  0  0  0  0  0  0  0  0  0  0
    0.8159   -1.9270   -1.5704 H   0  0  0  0  0  0  0  0  0  0  0  0
    0.5258    1.0754   -1.3379 H   0  0  0  0  0  0  0  0  0  0  0  0
   -2.0618   -2.9098   -1.1872 H   0  0  0  0  0  0  0  0  0  0  0  0
   -1.0824   -3.0956   -2.6399 H   0  0  0  0  0  0  0  0  0  0  0  0
   -0.1902    3.2605   -0.1918 H   0  0  0  0  0  0  0  0  0  0  0  0
   -2.1367   -3.5719    1.1312 H   0  0  0  0  0  0  0  0  0  0  0  0
    4.1326    0.1591   -0.9079 H   0  0  0  0  0  0  0  0  0  0  0  0
    4.3347   -0.0665    0.8448 H   0  0  0  0  0  0  0  0  0  0  0  0
    4.6933    2.4019    1.1072 H   0  0  0  0  0  0  0  0  0  0  0  0
    4.5454    2.5967   -0.6560 H   0  0  0  0  0  0  0  0  0  0  0  0
   -5.0356   -0.9674   -0.1879 H   0  0  0  0  0  0  0  0  0  0  0  0
   -4.7953    4.2741    0.8208 H   0  0  0  0  0  0  0  0  0  0  0  0
   -6.2737    3.3312    0.8892 H   0  0  0  0  0  0  0  0  0  0  0  0
    8.0378    2.5037   -0.0669 H   0  0  0  0  0  0  0  0  0  0  0  0
  1  3  1  0  0  0  0
  1  5  1  0  0  0  0
  1  6  1  0  0  0  0
  1  7  2  0  0  0  0
  2 18  1  0  0  0  0
  2 19  1  0  0  0  0
  3 16  1  0  0  0  0
  4 17  1  0  0  0  0
  4 24  1  0  0  0  0
  5 20  1  0  0  0  0
  6 37  1  0  0  0  0
  8 24  2  0  0  0  0
  9 29  1  0  0  0  0
  9 45  1  0  0  0  0
 10 29  2  0  0  0  0
 11 19  1  0  0  0  0
 11 21  1  0  0  0  0
 11 22  1  0  0  0  0
 12 22  2  0  0  0  0
 12 23  1  0  0  0  0
 13 21  2  0  0  0  0
 13 28  1  0  0  0  0
 14 26  1  0  0  0  0
 14 28  2  0  0  0  0
 15 26  1  0  0  0  0
 15 43  1  0  0  0  0
 15 44  1  0  0  0  0
 16 17  1  0  0  0  0
 16 18  1  0  0  0  0
 16 30  1  0  0  0  0
 17 19  1  0  0  0  0
 17 31  1  0  0  0  0
 18 20  1  0  0  0  0
 18 32  1  0  0  0  0
 19 33  1  0  0  0  0
 20 34  1  0  0  0  0
 20 35  1  0  0  0  0
 21 23  1  0  0  0  0
 22 36  1  0  0  0  0
 23 26  2  0  0  0  0
 24 25  1  0  0  0  0
 25 27  1  0  0  0  0
 25 38  1  0  0  0  0
 25 39  1  0  0  0  0
 27 29  1  0  0  0  0
 27 40  1  0  0  0  0
 27 41  1  0  0  0  0
 28 42  1  0  0  0  0
M  END
> <PUBCHEM_COMPOUND_CID>
162234

> <PUBCHEM_CONFORMER_RMSD>
0.8

> <PUBCHEM_CONFORMER_DIVERSEORDER>
1
86
89
10
95
123
77
146
130
30
21
31
40
9
145
13
143
69
17
29
76
144
70
127
110
118
147
142
136
96
39
132
56
41
115
16
28
104
83
11
82
101
108
91
126
66
113
90
97
98
34
14
26
65
62
25
33
43
80
60
114
99
75
32
122
133
64
125
55
51
67
23
72
119
149
88
35
131
8
92
27
3
121
112
73
111
50
5
44
117
22
2
61
38
71
53
74
105
102
24
109
85
54
58
124
42
138
128
120
46
20
135
140
87
148
7
49
18
141
45
47
15
137
12
116
52
68
81
93
100
103
139
19
106
37
59
63
36
6
94
129
4
78
107
57
79
84
134
48

> <PUBCHEM_MMFF94_PARTIAL_CHARGES>
35
1 1.51
10 -0.57
11 0.05
12 -0.57
13 -0.57
14 -0.62
15 -0.9
16 0.28
17 0.28
18 0.28
19 0.54
2 -0.56
20 0.28
21 0.11
22 0.04
23 0.23
24 0.66
25 0.06
26 0.41
27 0.06
28 0.47
29 0.66
3 -0.55
36 0.15
37 0.5
4 -0.43
42 0.15
43 0.4
44 0.4
45 0.5
5 -0.55
6 -0.77
7 -0.7
8 -0.57
9 -0.65

> <PUBCHEM_EFFECTIVE_ROTOR_COUNT>
7.2

> <PUBCHEM_PHARMACOPHORE_FEATURES>
16
1 10 acceptor
1 15 cation
1 15 donor
1 2 acceptor
1 6 acceptor
1 7 acceptor
1 8 acceptor
1 9 acceptor
3 11 12 22 cation
3 11 13 21 cation
3 13 14 28 cation
3 9 10 29 anion
5 11 12 21 22 23 rings
5 2 16 17 18 19 rings
6 1 3 5 16 18 20 rings
6 13 14 21 23 26 28 rings

> <PUBCHEM_HEAVY_ATOM_COUNT>
29

> <PUBCHEM_ATOM_DEF_STEREO_COUNT>
4

> <PUBCHEM_ATOM_UDEF_STEREO_COUNT>
0

> <PUBCHEM_BOND_DEF_STEREO_COUNT>
0

> <PUBCHEM_BOND_UDEF_STEREO_COUNT>
0

> <PUBCHEM_ISOTOPIC_ATOM_COUNT>
0

> <PUBCHEM_COMPONENT_COUNT>
1

> <PUBCHEM_CACTVS_TAUTO_COUNT>
3

> <PUBCHEM_CONFORMER_ID>
000279BA00000001

> <PUBCHEM_MMFF94_ENERGY>
47.3541

> <PUBCHEM_FEATURE_SELFOVERLAP>
81.961

> <PUBCHEM_SHAPE_FINGERPRINT>
10074138 170 18194102226470217866
10119406 146 18412269420157098414
10411042 1 17546726414233828766
107951 10 18413111667269695134
1100329 8 18121497114270274525
11007060 377 18272087266050312120
12788726 201 18194667388184732978
13911987 19 18263060220010153085
14713325 29 18268147741984770318
14790565 3 18338797815062706080
14866123 147 18338794645150150746
15042514 8 18192997251285467858
15064986 266 18267309905977114460
15230672 131 18408326567581806878
15664445 248 17552647950333019566
15927050 60 18411981356178809662
16090146 7 17750789038009100622
19591789 44 18339638928361815958
20101258 96 17834399299603694442
21756936 100 18342730845364445460
21796203 349 17187320892636103163
22224240 67 18412830192277224809
23366157 5 17903085434334664645
23419403 2 17268401319319702119
23559900 14 17761486994294598329
23598288 3 18050292771494046902
3411729 13 18198345048547274853
3610482 184 18115880766617096828
3759504 43 18409730685835183556
4058900 60 18268438944514007880
4073 2 18266738160273945424
5104073 3 17908157482413216425
5171179 24 17412736585935740912
59755656 520 18409443700642298772
6669772 16 18270685268892971022
77188 2 17185315885484447322
9896288 288 18341618135565724723
9981440 41 18334585620233757009

> <PUBCHEM_SHAPE_MULTIPOLES>
522.93
11.49
6.09
1.02
17.94
8.62
0.21
-16.15
-1.05
-1.98
-1.47
-0.31
0.94
-0.71

> <PUBCHEM_SHAPE_SELFOVERLAP>
1121.164

> <PUBCHEM_SHAPE_VOLUME>
289.4

> <PUBCHEM_COORDINATE_TYPE>
2
5
10

$$$$
