12921505
  -OEChem-02172602523D

 37 36  0     1  0  0  0  0  0999 V2000
    0.8559    0.2553    0.7907 S   0  0  0  0  0  0  0  0  0  0  0  0
   -1.9722   -0.0918    0.4021 P   0  0  0  0  0  0  0  0  0  0  0  0
   -0.2711   -1.5953   -0.7988 O   0  0  0  0  0  0  0  0  0  0  0  0
   -3.0600   -0.2659   -0.7859 O   0  0  0  0  0  0  0  0  0  0  0  0
   -2.0821    1.4897    0.7384 O   0  0  0  0  0  0  0  0  0  0  0  0
    0.8628   -0.7264    1.8591 O   0  0  0  0  0  0  0  0  0  0  0  0
    0.6482    1.6590    1.0957 O   0  0  0  0  0  0  0  0  0  0  0  0
   -2.1758   -0.9970    1.5831 O   0  0  0  0  0  0  0  0  0  0  0  0
    2.3048    0.1073   -0.1122 N   0  0  0  0  0  0  0  0  0  0  0  0
   -0.3838   -0.2324   -0.4124 C   0  0  2  0  0  0  0  0  0  0  0  0
    2.4616    0.9265   -1.3377 C   0  0  0  0  0  0  0  0  0  0  0  0
    2.9634   -1.2154   -0.2215 C   0  0  0  0  0  0  0  0  0  0  0  0
    3.6551    1.8479   -1.1877 C   0  0  0  0  0  0  0  0  0  0  0  0
    3.9699   -1.3797    0.8993 C   0  0  0  0  0  0  0  0  0  0  0  0
   -1.2917   -1.9911   -1.7056 C   0  0  0  0  0  0  0  0  0  0  0  0
   -4.4406   -0.2046   -0.4719 C   0  0  0  0  0  0  0  0  0  0  0  0
   -2.0444    2.4138   -0.3348 C   0  0  0  0  0  0  0  0  0  0  0  0
   -0.3049    0.4157   -1.2870 H   0  0  0  0  0  0  0  0  0  0  0  0
    2.5541    0.3018   -2.2322 H   0  0  0  0  0  0  0  0  0  0  0  0
    1.5790    1.5551   -1.4941 H   0  0  0  0  0  0  0  0  0  0  0  0
    2.2206   -2.0177   -0.1781 H   0  0  0  0  0  0  0  0  0  0  0  0
    3.4816   -1.3289   -1.1799 H   0  0  0  0  0  0  0  0  0  0  0  0
    3.7599    2.4847   -2.0715 H   0  0  0  0  0  0  0  0  0  0  0  0
    4.5816    1.2769   -1.0680 H   0  0  0  0  0  0  0  0  0  0  0  0
    3.5452    2.4945   -0.3106 H   0  0  0  0  0  0  0  0  0  0  0  0
    4.4696   -2.3504    0.8223 H   0  0  0  0  0  0  0  0  0  0  0  0
    3.4934   -1.3221    1.8826 H   0  0  0  0  0  0  0  0  0  0  0  0
    4.7358   -0.5983    0.8558 H   0  0  0  0  0  0  0  0  0  0  0  0
   -1.5394   -1.2087   -2.4294 H   0  0  0  0  0  0  0  0  0  0  0  0
   -0.8966   -2.8372   -2.2778 H   0  0  0  0  0  0  0  0  0  0  0  0
   -2.1619   -2.3759   -1.1687 H   0  0  0  0  0  0  0  0  0  0  0  0
   -5.0139   -0.2411   -1.4013 H   0  0  0  0  0  0  0  0  0  0  0  0
   -4.7137   -1.0601    0.1511 H   0  0  0  0  0  0  0  0  0  0  0  0
   -4.6701    0.7252    0.0545 H   0  0  0  0  0  0  0  0  0  0  0  0
   -2.2612    3.4075    0.0669 H   0  0  0  0  0  0  0  0  0  0  0  0
   -1.0564    2.4456   -0.7971 H   0  0  0  0  0  0  0  0  0  0  0  0
   -2.8003    2.1817   -1.0881 H   0  0  0  0  0  0  0  0  0  0  0  0
  1  6  2  0  0  0  0
  1  7  2  0  0  0  0
  1  9  1  0  0  0  0
  1 10  1  0  0  0  0
  2  4  1  0  0  0  0
  2  5  1  0  0  0  0
  2  8  2  0  0  0  0
  2 10  1  0  0  0  0
  3 10  1  0  0  0  0
  3 15  1  0  0  0  0
  4 16  1  0  0  0  0
  5 17  1  0  0  0  0
  9 11  1  0  0  0  0
  9 12  1  0  0  0  0
 10 18  1  0  0  0  0
 11 13  1  0  0  0  0
 11 19  1  0  0  0  0
 11 20  1  0  0  0  0
 12 14  1  0  0  0  0
 12 21  1  0  0  0  0
 12 22  1  0  0  0  0
 13 23  1  0  0  0  0
 13 24  1  0  0  0  0
 13 25  1  0  0  0  0
 14 26  1  0  0  0  0
 14 27  1  0  0  0  0
 14 28  1  0  0  0  0
 15 29  1  0  0  0  0
 15 30  1  0  0  0  0
 15 31  1  0  0  0  0
 16 32  1  0  0  0  0
 16 33  1  0  0  0  0
 16 34  1  0  0  0  0
 17 35  1  0  0  0  0
 17 36  1  0  0  0  0
 17 37  1  0  0  0  0
M  END
> <PUBCHEM_COMPOUND_CID>
12921505

> <PUBCHEM_CONFORMER_RMSD>
0.8

> <PUBCHEM_CONFORMER_DIVERSEORDER>
27
3
37
16
20
21
38
17
12
1
33
29
11
25
2
23
35
10
24
31
34
28
19
18
4
36
30
8
32
15
13
5
7
9
22
6
26
14

> <PUBCHEM_MMFF94_PARTIAL_CHARGES>
15
1 1.33
10 0.39
11 0.36
12 0.36
15 0.28
16 0.28
17 0.28
2 1.24
3 -0.56
4 -0.55
5 -0.55
6 -0.65
7 -0.65
8 -0.7
9 -0.85

> <PUBCHEM_EFFECTIVE_ROTOR_COUNT>
8

> <PUBCHEM_PHARMACOPHORE_FEATURES>
4
1 3 acceptor
1 6 acceptor
1 7 acceptor
1 8 acceptor

> <PUBCHEM_HEAVY_ATOM_COUNT>
17

> <PUBCHEM_ATOM_DEF_STEREO_COUNT>
0

> <PUBCHEM_ATOM_UDEF_STEREO_COUNT>
1

> <PUBCHEM_BOND_DEF_STEREO_COUNT>
0

> <PUBCHEM_BOND_UDEF_STEREO_COUNT>
0

> <PUBCHEM_ISOTOPIC_ATOM_COUNT>
0

> <PUBCHEM_COMPONENT_COUNT>
1

> <PUBCHEM_CACTVS_TAUTO_COUNT>
1

> <PUBCHEM_CONFORMER_ID>
00C52AA10000001B

> <PUBCHEM_MMFF94_ENERGY>
29.103

> <PUBCHEM_FEATURE_SELFOVERLAP>
20.319

> <PUBCHEM_SHAPE_FINGERPRINT>
10922523 26 18268712723336072014
12932764 1 18201727300975282592
13538477 17 18341610481527938334
14115302 16 18202279217237095198
14993402 34 18059582428993447005
15775835 57 18343025531312035341
16945 1 18337403732675334800
18186145 218 17676783006371128680
18981168 100 17023166215832227484
19422 9 18334861597335700184
20600515 1 16988562377799114682
20645476 183 18266463285364289191
20871999 31 17489042529404565260
21501502 16 18337961094924088425
23402539 116 18335413527078214839
23419403 2 15658329572904274819
23557571 272 17632295644982980296
23559900 14 17967531285477604082
23598291 2 18188780427088727108
2748010 2 17772482187491568271
3286 77 17988912371469677457
45790113 50 17968106321200068190
474 4 17751084815469311900
58051976 100 18337394829123669334

> <PUBCHEM_SHAPE_MULTIPOLES>
317.35
6.63
2.16
1.55
0.29
0.72
0.07
0.01
-0.97
0.37
-0.46
0.17
-0.36
-1.16

> <PUBCHEM_SHAPE_SELFOVERLAP>
571.499

> <PUBCHEM_SHAPE_VOLUME>
205

> <PUBCHEM_COORDINATE_TYPE>
2
5
10

$$$$
