10173618
  -OEChem-02172602513D

 48 51  0     0  0  0  0  0  0999 V2000
   -3.0128   -0.1599    1.2397 S   0  0  0  0  0  0  0  0  0  0  0  0
   -0.4376    3.7303   -0.3527 F   0  0  0  0  0  0  0  0  0  0  0  0
   -5.4806    1.6449    0.3051 F   0  0  0  0  0  0  0  0  0  0  0  0
   -2.6357    5.1566   -1.1047 F   0  0  0  0  0  0  0  0  0  0  0  0
    5.7874    1.1702    0.1038 O   0  0  0  0  0  0  0  0  0  0  0  0
    3.6969    1.1873   -0.8708 O   0  0  0  0  0  0  0  0  0  0  0  0
    1.6584   -2.7948   -0.8144 N   0  0  0  0  0  0  0  0  0  0  0  0
   -0.7957    1.0836    0.8041 N   0  0  0  0  0  0  0  0  0  0  0  0
    0.6966   -1.5181    0.9632 C   0  0  0  0  0  0  0  0  0  0  0  0
   -0.5110   -1.1529    1.8146 C   0  0  0  0  0  0  0  0  0  0  0  0
    0.6071   -2.4461   -0.0394 C   0  0  0  0  0  0  0  0  0  0  0  0
    1.8946   -0.8933    1.2209 C   0  0  0  0  0  0  0  0  0  0  0  0
    2.9992   -1.2256    0.4445 C   0  0  0  0  0  0  0  0  0  0  0  0
   -1.3076   -0.0305    1.2723 C   0  0  0  0  0  0  0  0  0  0  0  0
   -0.6197   -3.1395   -0.3634 C   0  0  0  0  0  0  0  0  0  0  0  0
    4.3206   -0.5834    0.6764 C   0  0  0  0  0  0  0  0  0  0  0  0
   -1.8165    1.9209    0.3778 C   0  0  0  0  0  0  0  0  0  0  0  0
   -3.1089    1.4111    0.5362 C   0  0  0  0  0  0  0  0  0  0  0  0
    2.8302   -2.1738   -0.5516 C   0  0  0  0  0  0  0  0  0  0  0  0
   -1.4993   -2.6004   -1.3031 C   0  0  0  0  0  0  0  0  0  0  0  0
   -0.9251   -4.3486    0.2627 C   0  0  0  0  0  0  0  0  0  0  0  0
   -1.6593    3.2059   -0.1854 C   0  0  0  0  0  0  0  0  0  0  0  0
   -4.2457    2.1401    0.1518 C   0  0  0  0  0  0  0  0  0  0  0  0
    4.5312    0.6852   -0.1300 C   0  0  0  0  0  0  0  0  0  0  0  0
   -2.7867    3.9372   -0.5705 C   0  0  0  0  0  0  0  0  0  0  0  0
   -4.0622    3.4093   -0.4032 C   0  0  0  0  0  0  0  0  0  0  0  0
   -2.6827   -3.2693   -1.6160 C   0  0  0  0  0  0  0  0  0  0  0  0
   -2.1084   -5.0175   -0.0504 C   0  0  0  0  0  0  0  0  0  0  0  0
   -2.9871   -4.4778   -0.9898 C   0  0  0  0  0  0  0  0  0  0  0  0
    6.1237    2.3727   -0.5958 C   0  0  0  0  0  0  0  0  0  0  0  0
    7.5368    2.7760   -0.2318 C   0  0  0  0  0  0  0  0  0  0  0  0
   -0.1539   -0.8613    2.8128 H   0  0  0  0  0  0  0  0  0  0  0  0
   -1.1206   -2.0439    2.0064 H   0  0  0  0  0  0  0  0  0  0  0  0
    1.9833   -0.1520    2.0101 H   0  0  0  0  0  0  0  0  0  0  0  0
    4.4316   -0.3348    1.7389 H   0  0  0  0  0  0  0  0  0  0  0  0
    5.1218   -1.2881    0.4220 H   0  0  0  0  0  0  0  0  0  0  0  0
    3.6539   -2.4741   -1.1920 H   0  0  0  0  0  0  0  0  0  0  0  0
   -1.2767   -1.6595   -1.8010 H   0  0  0  0  0  0  0  0  0  0  0  0
   -0.2508   -4.7827    0.9972 H   0  0  0  0  0  0  0  0  0  0  0  0
   -4.9287    3.9900   -0.7077 H   0  0  0  0  0  0  0  0  0  0  0  0
   -3.3672   -2.8486   -2.3468 H   0  0  0  0  0  0  0  0  0  0  0  0
   -2.3459   -5.9584    0.4374 H   0  0  0  0  0  0  0  0  0  0  0  0
   -3.9087   -4.9984   -1.2332 H   0  0  0  0  0  0  0  0  0  0  0  0
    5.4266    3.1683   -0.3104 H   0  0  0  0  0  0  0  0  0  0  0  0
    6.0549    2.1985   -1.6754 H   0  0  0  0  0  0  0  0  0  0  0  0
    7.8274    3.6940   -0.7503 H   0  0  0  0  0  0  0  0  0  0  0  0
    7.6259    2.9362    0.8478 H   0  0  0  0  0  0  0  0  0  0  0  0
    8.2439    1.9823   -0.4947 H   0  0  0  0  0  0  0  0  0  0  0  0
  1 14  1  0  0  0  0
  1 18  1  0  0  0  0
  2 22  1  0  0  0  0
  3 23  1  0  0  0  0
  4 25  1  0  0  0  0
  5 24  1  0  0  0  0
  5 30  1  0  0  0  0
  6 24  2  0  0  0  0
  7 11  1  0  0  0  0
  7 19  2  0  0  0  0
  8 14  2  0  0  0  0
  8 17  1  0  0  0  0
  9 10  1  0  0  0  0
  9 11  2  0  0  0  0
  9 12  1  0  0  0  0
 10 14  1  0  0  0  0
 10 32  1  0  0  0  0
 10 33  1  0  0  0  0
 11 15  1  0  0  0  0
 12 13  2  0  0  0  0
 12 34  1  0  0  0  0
 13 16  1  0  0  0  0
 13 19  1  0  0  0  0
 15 20  2  0  0  0  0
 15 21  1  0  0  0  0
 16 24  1  0  0  0  0
 16 35  1  0  0  0  0
 16 36  1  0  0  0  0
 17 18  1  0  0  0  0
 17 22  2  0  0  0  0
 18 23  2  0  0  0  0
 19 37  1  0  0  0  0
 20 27  1  0  0  0  0
 20 38  1  0  0  0  0
 21 28  2  0  0  0  0
 21 39  1  0  0  0  0
 22 25  1  0  0  0  0
 23 26  1  0  0  0  0
 25 26  2  0  0  0  0
 26 40  1  0  0  0  0
 27 29  2  0  0  0  0
 27 41  1  0  0  0  0
 28 29  1  0  0  0  0
 28 42  1  0  0  0  0
 29 43  1  0  0  0  0
 30 31  1  0  0  0  0
 30 44  1  0  0  0  0
 30 45  1  0  0  0  0
 31 46  1  0  0  0  0
 31 47  1  0  0  0  0
 31 48  1  0  0  0  0
M  END
> <PUBCHEM_COMPOUND_CID>
10173618

> <PUBCHEM_CONFORMER_RMSD>
1

> <PUBCHEM_CONFORMER_DIVERSEORDER>
1
11
60
79
82
13
108
15
23
101
116
78
93
50
61
3
84
90
117
53
63
121
4
28
32
96
26
34
124
56
69
19
99
51
8
91
35
2
126
62
74
125
20
66
48
38
118
21
29
80
36
16
71
100
59
94
120
75
54
44
68
46
122
9
83
92
102
103
42
88
110
81
12
14
5
49
40
33
67
6
105
72
55
76
106
98
77
52
64
43
114
87
104
30
7
97
73
119
17
109
115
123
37
39
95
10
27
107
47
22
89
113
70
58
111
85
86
41
31
24
112
45
65
25
57
18

> <PUBCHEM_MMFF94_PARTIAL_CHARGES>
37
1 -0.08
10 0.32
11 0.31
12 -0.15
13 -0.14
14 0.2
16 0.2
17 0.23
18 0.04
19 0.16
2 -0.19
20 -0.15
21 -0.15
22 0.19
23 0.19
24 0.66
25 0.19
26 -0.15
27 -0.15
28 -0.15
29 -0.15
3 -0.19
30 0.28
34 0.15
37 0.15
38 0.15
39 0.15
4 -0.19
40 0.15
41 0.15
42 0.15
43 0.15
5 -0.43
6 -0.57
7 -0.62
8 -0.57
9 -0.14

> <PUBCHEM_EFFECTIVE_ROTOR_COUNT>
7

> <PUBCHEM_PHARMACOPHORE_FEATURES>
7
1 6 acceptor
1 7 acceptor
1 8 acceptor
5 1 8 14 17 18 rings
6 15 20 21 27 28 29 rings
6 17 18 22 23 25 26 rings
6 7 9 11 12 13 19 rings

> <PUBCHEM_HEAVY_ATOM_COUNT>
31

> <PUBCHEM_ATOM_DEF_STEREO_COUNT>
0

> <PUBCHEM_ATOM_UDEF_STEREO_COUNT>
0

> <PUBCHEM_BOND_DEF_STEREO_COUNT>
0

> <PUBCHEM_BOND_UDEF_STEREO_COUNT>
0

> <PUBCHEM_ISOTOPIC_ATOM_COUNT>
0

> <PUBCHEM_COMPONENT_COUNT>
1

> <PUBCHEM_CACTVS_TAUTO_COUNT>
1

> <PUBCHEM_CONFORMER_ID>
009B3CB200000001

> <PUBCHEM_MMFF94_ENERGY>
66.3

> <PUBCHEM_FEATURE_SELFOVERLAP>
35.595

> <PUBCHEM_SHAPE_FINGERPRINT>
10258939 38 17969233235663984753
10670039 82 18198064892863878928
10675989 125 16897085535703555721
10871710 139 18338799030100587922
11513181 2 18339647711432734974
12107183 9 18191012427747081410
12788726 201 18265038309805503274
1361 2 18339357440843296141
14114211 80 18129111034792836409
14294032 229 18341058496409538240
14556957 393 17975984472906554300
15198563 99 18195809789107442639
15276724 80 18199188567033949234
16087824 20 18339081609986765283
17899979 129 17907020573550424204
17980427 26 17604142615563518842
18681886 176 17906164058572113322
20101258 96 18049451631692131115
21641784 216 18196097874350402062
21927370 108 17904216071628274378
23559900 14 17257928196513561459
238 59 17623010093177474267
2838139 119 18334857161294009320
376196 1 17899419679573540129
44249763 50 18129377267579531200
469060 322 18052272978888044802
508706 21 18127116692868053200
5171179 24 17698440267461618160
563151 97 18336265764918355082
6036956 94 17971200471644481196
6608658 132 17903936787579944860
7399639 24 18193293901125317491
7808743 9 18410855486594415064

> <PUBCHEM_SHAPE_MULTIPOLES>
598.29
11.28
7.67
1.27
25.17
0.49
0.13
11.19
-1.87
-9.6
-3.01
-0.53
-0.48
-1.1

> <PUBCHEM_SHAPE_SELFOVERLAP>
1303.995

> <PUBCHEM_SHAPE_VOLUME>
329.4

> <PUBCHEM_COORDINATE_TYPE>
2
5
10

$$$$
