15558524
  -OEChem-02172602253D

 55 56  0     1  0  0  0  0  0999 V2000
   -5.7981   -1.0894   -0.9228 O   0  0  0  0  0  0  0  0  0  0  0  0
    6.6086   -1.4683    1.2180 O   0  0  0  0  0  0  0  0  0  0  0  0
    6.3191   -1.0519   -1.0018 O   0  0  0  0  0  0  0  0  0  0  0  0
   -1.2778   -0.2003   -0.2575 C   0  0  1  0  0  0  0  0  0  0  0  0
   -2.5535    0.3114    0.5263 C   0  0  2  0  0  0  0  0  0  0  0  0
   -3.8678   -0.5358    0.3714 C   0  0  2  0  0  0  0  0  0  0  0  0
   -0.0330    0.6023    0.3115 C   0  0  2  0  0  0  0  0  0  0  0  0
   -1.1049   -1.7170    0.0155 C   0  0  0  0  0  0  0  0  0  0  0  0
   -2.7509    1.8332    0.3389 C   0  0  0  0  0  0  0  0  0  0  0  0
   -3.5430   -2.0355    0.5792 C   0  0  0  0  0  0  0  0  0  0  0  0
   -2.3659   -2.5363   -0.2458 C   0  0  0  0  0  0  0  0  0  0  0  0
   -1.3597    0.0167   -1.7902 C   0  0  0  0  0  0  0  0  0  0  0  0
   -1.5160    2.6210    0.7845 C   0  0  0  0  0  0  0  0  0  0  0  0
   -0.2560    2.1043    0.1358 C   0  0  0  0  0  0  0  0  0  0  0  0
   -4.6074   -0.3327   -0.9641 C   0  0  0  0  0  0  0  0  0  0  0  0
    1.3330    0.1027   -0.1912 C   0  0  0  0  0  0  0  0  0  0  0  0
   -4.8755   -0.1426    1.4856 C   0  0  0  0  0  0  0  0  0  0  0  0
    2.4683    0.8256    0.5227 C   0  0  0  0  0  0  0  0  0  0  0  0
    0.5521    2.9421   -0.5343 C   0  0  0  0  0  0  0  0  0  0  0  0
    3.8199    0.3487    0.0396 C   0  0  0  0  0  0  0  0  0  0  0  0
    4.3510    1.0839   -1.1657 C   0  0  0  0  0  0  0  0  0  0  0  0
    4.5607   -0.6233    0.6038 C   0  0  0  0  0  0  0  0  0  0  0  0
    5.8967   -1.0588    0.1407 C   0  0  0  0  0  0  0  0  0  0  0  0
   -2.2881    0.1890    1.5903 H   0  0  0  0  0  0  0  0  0  0  0  0
   -0.0194    0.4294    1.3995 H   0  0  0  0  0  0  0  0  0  0  0  0
   -0.8015   -1.8688    1.0597 H   0  0  0  0  0  0  0  0  0  0  0  0
   -0.3032   -2.1323   -0.6065 H   0  0  0  0  0  0  0  0  0  0  0  0
   -3.5996    2.1877    0.9329 H   0  0  0  0  0  0  0  0  0  0  0  0
   -2.9855    2.0702   -0.7045 H   0  0  0  0  0  0  0  0  0  0  0  0
   -4.4159   -2.6676    0.3764 H   0  0  0  0  0  0  0  0  0  0  0  0
   -3.3009   -2.2031    1.6384 H   0  0  0  0  0  0  0  0  0  0  0  0
   -2.6184   -2.5352   -1.3108 H   0  0  0  0  0  0  0  0  0  0  0  0
   -2.1678   -3.5826    0.0168 H   0  0  0  0  0  0  0  0  0  0  0  0
   -2.1228   -0.5942   -2.2683 H   0  0  0  0  0  0  0  0  0  0  0  0
   -1.5557    1.0570   -2.0624 H   0  0  0  0  0  0  0  0  0  0  0  0
   -0.4235   -0.2706   -2.2799 H   0  0  0  0  0  0  0  0  0  0  0  0
   -1.4063    2.5416    1.8736 H   0  0  0  0  0  0  0  0  0  0  0  0
   -1.6765    3.6837    0.5661 H   0  0  0  0  0  0  0  0  0  0  0  0
   -4.0451   -0.6938   -1.8212 H   0  0  0  0  0  0  0  0  0  0  0  0
   -4.8628    0.7158   -1.1477 H   0  0  0  0  0  0  0  0  0  0  0  0
    1.4387   -0.9713   -0.0028 H   0  0  0  0  0  0  0  0  0  0  0  0
    1.4300    0.2428   -1.2737 H   0  0  0  0  0  0  0  0  0  0  0  0
   -5.6928   -0.8675    1.5781 H   0  0  0  0  0  0  0  0  0  0  0  0
   -4.3839   -0.1045    2.4647 H   0  0  0  0  0  0  0  0  0  0  0  0
   -5.3260    0.8387    1.3034 H   0  0  0  0  0  0  0  0  0  0  0  0
    2.3920    0.5797    1.5922 H   0  0  0  0  0  0  0  0  0  0  0  0
    2.4628    1.9139    0.5100 H   0  0  0  0  0  0  0  0  0  0  0  0
    1.4136    2.6258   -1.1066 H   0  0  0  0  0  0  0  0  0  0  0  0
    0.3135    3.9997   -0.6014 H   0  0  0  0  0  0  0  0  0  0  0  0
   -6.4881   -0.5429   -0.5101 H   0  0  0  0  0  0  0  0  0  0  0  0
    3.9282    2.0930   -1.2236 H   0  0  0  0  0  0  0  0  0  0  0  0
    4.0758    0.5565   -2.0846 H   0  0  0  0  0  0  0  0  0  0  0  0
    5.4349    1.2278   -1.1373 H   0  0  0  0  0  0  0  0  0  0  0  0
    4.1849   -1.1185    1.4961 H   0  0  0  0  0  0  0  0  0  0  0  0
    7.5103   -1.7654    0.9707 H   0  0  0  0  0  0  0  0  0  0  0  0
  1 15  1  0  0  0  0
  1 50  1  0  0  0  0
  2 23  1  0  0  0  0
  2 55  1  0  0  0  0
  3 23  2  0  0  0  0
  4  5  1  0  0  0  0
  4  7  1  0  0  0  0
  4  8  1  0  0  0  0
  4 12  1  0  0  0  0
  5  6  1  0  0  0  0
  5  9  1  0  0  0  0
  5 24  1  0  0  0  0
  6 10  1  0  0  0  0
  6 15  1  0  0  0  0
  6 17  1  0  0  0  0
  7 14  1  0  0  0  0
  7 16  1  0  0  0  0
  7 25  1  0  0  0  0
  8 11  1  0  0  0  0
  8 26  1  0  0  0  0
  8 27  1  0  0  0  0
  9 13  1  0  0  0  0
  9 28  1  0  0  0  0
  9 29  1  0  0  0  0
 10 11  1  0  0  0  0
 10 30  1  0  0  0  0
 10 31  1  0  0  0  0
 11 32  1  0  0  0  0
 11 33  1  0  0  0  0
 12 34  1  0  0  0  0
 12 35  1  0  0  0  0
 12 36  1  0  0  0  0
 13 14  1  0  0  0  0
 13 37  1  0  0  0  0
 13 38  1  0  0  0  0
 14 19  2  0  0  0  0
 15 39  1  0  0  0  0
 15 40  1  0  0  0  0
 16 18  1  0  0  0  0
 16 41  1  0  0  0  0
 16 42  1  0  0  0  0
 17 43  1  0  0  0  0
 17 44  1  0  0  0  0
 17 45  1  0  0  0  0
 18 20  1  0  0  0  0
 18 46  1  0  0  0  0
 18 47  1  0  0  0  0
 19 48  1  0  0  0  0
 19 49  1  0  0  0  0
 20 21  1  0  0  0  0
 20 22  2  0  0  0  0
 21 51  1  0  0  0  0
 21 52  1  0  0  0  0
 21 53  1  0  0  0  0
 22 23  1  0  0  0  0
 22 54  1  0  0  0  0
M  END
> <PUBCHEM_COMPOUND_CID>
15558524

> <PUBCHEM_CONFORMER_RMSD>
0.8

> <PUBCHEM_CONFORMER_DIVERSEORDER>
1
12
9
4
11
8
13
3
10
6
7
5
2

> <PUBCHEM_MMFF94_PARTIAL_CHARGES>
18
1 -0.68
13 0.14
14 -0.28
15 0.28
18 0.14
19 -0.3
2 -0.65
20 -0.28
21 0.14
22 -0.14
23 0.71
3 -0.57
48 0.15
49 0.15
50 0.4
54 0.15
55 0.5
7 0.14

> <PUBCHEM_EFFECTIVE_ROTOR_COUNT>
6.4

> <PUBCHEM_PHARMACOPHORE_FEATURES>
8
1 1 acceptor
1 1 donor
1 2 acceptor
1 21 hydrophobe
1 3 acceptor
3 2 3 23 anion
6 4 5 6 8 10 11 rings
6 4 5 7 9 13 14 rings

> <PUBCHEM_HEAVY_ATOM_COUNT>
23

> <PUBCHEM_ATOM_DEF_STEREO_COUNT>
4

> <PUBCHEM_ATOM_UDEF_STEREO_COUNT>
0

> <PUBCHEM_BOND_DEF_STEREO_COUNT>
1

> <PUBCHEM_BOND_UDEF_STEREO_COUNT>
0

> <PUBCHEM_ISOTOPIC_ATOM_COUNT>
0

> <PUBCHEM_COMPONENT_COUNT>
1

> <PUBCHEM_CACTVS_TAUTO_COUNT>
1

> <PUBCHEM_CONFORMER_ID>
00ED677C00000001

> <PUBCHEM_MMFF94_ENERGY>
80.6106

> <PUBCHEM_FEATURE_SELFOVERLAP>
40.665

> <PUBCHEM_SHAPE_FINGERPRINT>
11045515 52 17821728342853811780
11315181 36 18187367627777283064
11578080 2 17243007943952259399
12011746 2 18409440393649278023
12166972 35 17967535704714193380
12236239 1 17967256386291112588
12553582 1 18335410283924440282
12555020 224 18338227263191322335
12633257 1 18060148647427549792
12760667 363 18413387631138459834
12788726 201 18270134477659784784
13140716 1 18196944481476789553
13288520 33 18410293601101714921
13551218 46 18200879478678891062
13583140 156 13901906696136098983
13862211 1 18342174496844154391
14251764 30 17676778672385591963
15042514 8 18339084787344504016
15463212 79 9943522977441423916
16945 1 18410864295704162169
17349148 13 17917437583208741453
17492 89 17978508964320771019
17804303 29 18201162143118728809
17857418 61 18410008828181231122
1813 80 17821739316684377540
18222031 100 18410568513616641960
18927931 339 18341619204490354879
200 152 17748829601034949272
21236236 1 18342176627111269897
21267235 1 18409738364920275818
22224240 67 9295291668902833421
22950370 63 18335709385541684056
2297311 6 18342468010825023500
23175994 123 18335416902601028973
23198884 109 14490189384270415606
23402539 116 18272084985591125357
23557571 272 18130516232370329580
23559900 14 18338510970891611456
3004659 81 18113614604115917590
335352 9 18410575089733649429
4214541 1 18410857625372142184
5104073 3 18129952302721084833
559249 180 18261951834831710584
59755656 215 18408885101338364958
6138700 20 18412259528493870479
70251023 43 17545598315715375915

> <PUBCHEM_SHAPE_MULTIPOLES>
455.72
13.26
2.61
1.18
17.84
0.95
-0.19
-7.95
0.71
-0.79
0.15
-0.27
-0.03
-0.88

> <PUBCHEM_SHAPE_SELFOVERLAP>
927.745

> <PUBCHEM_SHAPE_VOLUME>
262.1

> <PUBCHEM_COORDINATE_TYPE>
2
5
10

$$$$
