10103762
  -OEChem-02172602433D

 29 29  0     1  0  0  0  0  0999 V2000
    2.5248    0.7601    0.1885 O   0  0  0  0  0  0  0  0  0  0  0  0
   -2.4405    0.1074   -1.2252 O   0  0  0  0  0  0  0  0  0  0  0  0
   -1.0606    0.9899    0.5479 C   0  0  2  0  0  0  0  0  0  0  0  0
   -0.1877    1.7069   -0.4976 C   0  0  0  0  0  0  0  0  0  0  0  0
    0.6834    0.7766   -1.3551 C   0  0  0  0  0  0  0  0  0  0  0  0
   -1.9866   -0.0443   -0.0911 C   0  0  0  0  0  0  0  0  0  0  0  0
   -1.9171    1.9978    1.3122 C   0  0  0  0  0  0  0  0  0  0  0  0
   -2.3523   -1.2412    0.7727 C   0  0  0  0  0  0  0  0  0  0  0  0
    1.7023    0.0039   -0.5544 C   0  0  0  0  0  0  0  0  0  0  0  0
   -3.2899   -2.2047    0.0678 C   0  0  0  0  0  0  0  0  0  0  0  0
    1.9462   -1.3179   -0.4426 C   0  0  0  0  0  0  0  0  0  0  0  0
    3.0315   -1.4127    0.4609 C   0  0  0  0  0  0  0  0  0  0  0  0
    3.3466   -0.1218    0.8160 C   0  0  0  0  0  0  0  0  0  0  0  0
   -0.4076    0.4692    1.2579 H   0  0  0  0  0  0  0  0  0  0  0  0
    0.4519    2.4386    0.0130 H   0  0  0  0  0  0  0  0  0  0  0  0
   -0.8306    2.2825   -1.1767 H   0  0  0  0  0  0  0  0  0  0  0  0
    0.0643    0.0785   -1.9288 H   0  0  0  0  0  0  0  0  0  0  0  0
    1.2245    1.3840   -2.0916 H   0  0  0  0  0  0  0  0  0  0  0  0
   -2.5150    1.5031    2.0847 H   0  0  0  0  0  0  0  0  0  0  0  0
   -2.6119    2.5179    0.6431 H   0  0  0  0  0  0  0  0  0  0  0  0
   -1.2896    2.7484    1.8040 H   0  0  0  0  0  0  0  0  0  0  0  0
   -1.4273   -1.7631    1.0396 H   0  0  0  0  0  0  0  0  0  0  0  0
   -2.8270   -0.8776    1.6892 H   0  0  0  0  0  0  0  0  0  0  0  0
   -2.8374   -2.5925   -0.8509 H   0  0  0  0  0  0  0  0  0  0  0  0
   -4.2295   -1.7118   -0.2033 H   0  0  0  0  0  0  0  0  0  0  0  0
   -3.5241   -3.0531    0.7181 H   0  0  0  0  0  0  0  0  0  0  0  0
    1.4262   -2.1274   -0.9339 H   0  0  0  0  0  0  0  0  0  0  0  0
    3.5221   -2.3096    0.8102 H   0  0  0  0  0  0  0  0  0  0  0  0
    4.0883    0.3142    1.4693 H   0  0  0  0  0  0  0  0  0  0  0  0
  1  9  1  0  0  0  0
  1 13  1  0  0  0  0
  2  6  2  0  0  0  0
  3  4  1  0  0  0  0
  3  6  1  0  0  0  0
  3  7  1  0  0  0  0
  3 14  1  0  0  0  0
  4  5  1  0  0  0  0
  4 15  1  0  0  0  0
  4 16  1  0  0  0  0
  5  9  1  0  0  0  0
  5 17  1  0  0  0  0
  5 18  1  0  0  0  0
  6  8  1  0  0  0  0
  7 19  1  0  0  0  0
  7 20  1  0  0  0  0
  7 21  1  0  0  0  0
  8 10  1  0  0  0  0
  8 22  1  0  0  0  0
  8 23  1  0  0  0  0
  9 11  2  0  0  0  0
 10 24  1  0  0  0  0
 10 25  1  0  0  0  0
 10 26  1  0  0  0  0
 11 12  1  0  0  0  0
 11 27  1  0  0  0  0
 12 13  2  0  0  0  0
 12 28  1  0  0  0  0
 13 29  1  0  0  0  0
M  END
> <PUBCHEM_COMPOUND_CID>
10103762

> <PUBCHEM_CONFORMER_RMSD>
0.6

> <PUBCHEM_CONFORMER_DIVERSEORDER>
1
50
167
86
92
221
215
98
101
173
108
94
172
145
19
196
220
48
168
29
32
78
234
182
124
11
10
97
105
178
34
225
109
222
223
132
185
58
208
96
160
79
88
100
12
165
211
69
198
147
72
13
59
183
219
214
93
162
207
44
177
89
233
90
106
226
2
133
232
231
218
73
139
149
91
175
161
17
174
212
180
216
158
228
111
227
116
35
16
144
200
115
188
166
128
57
33
18
189
153
146
186
164
39
121
230
197
192
74
169
21
99
187
113
70
4
104
30
82
131
224
95
127
199
126
148
120
9
193
102
52
171
203
184
210
154
8
204
130
20
213
110
37
181
143
46
76
42
229
61
201
47
135
137
202
27
209
64
7
43
84
176
68
83
141
205
195
140
117
14
49
63
122
31
118
112
107
65
151
114
134
191
3
206
87
55
15
138
123
81
129
190
36
77
125
136
62
85
142
67
45
152
28
5
41
80
159
157
150
217
51
194
26
155
60
56
163
170
119
24
71
103
179
53
40
38
156
23
54
25
66
22
75
6

> <PUBCHEM_MMFF94_PARTIAL_CHARGES>
13
1 -0.28
11 -0.15
12 -0.15
13 -0.01
2 -0.57
27 0.15
28 0.15
29 0.15
3 0.06
5 0.18
6 0.45
8 0.06
9 -0.04

> <PUBCHEM_EFFECTIVE_ROTOR_COUNT>
5

> <PUBCHEM_PHARMACOPHORE_FEATURES>
5
1 1 acceptor
1 10 hydrophobe
1 2 acceptor
1 7 hydrophobe
5 1 9 11 12 13 rings

> <PUBCHEM_HEAVY_ATOM_COUNT>
13

> <PUBCHEM_ATOM_DEF_STEREO_COUNT>
0

> <PUBCHEM_ATOM_UDEF_STEREO_COUNT>
1

> <PUBCHEM_BOND_DEF_STEREO_COUNT>
0

> <PUBCHEM_BOND_UDEF_STEREO_COUNT>
0

> <PUBCHEM_ISOTOPIC_ATOM_COUNT>
0

> <PUBCHEM_COMPONENT_COUNT>
1

> <PUBCHEM_CACTVS_TAUTO_COUNT>
3

> <PUBCHEM_CONFORMER_ID>
009A2BD200000001

> <PUBCHEM_MMFF94_ENERGY>
8.3783

> <PUBCHEM_FEATURE_SELFOVERLAP>
25.372

> <PUBCHEM_SHAPE_FINGERPRINT>
12251169 10 18269561537559419152
12382932 28 18340773637003846680
12500047 106 18121497955951995660
12824470 246 18187646959465365979
12932764 1 17677061135505142212
13764800 53 16558479573482551049
14251705 54 18261961876233919627
14350558 41 18188212116683629063
14787075 74 17765148762978198668
15375462 189 18122639511167561107
16945 1 18117845399862436556
17834072 14 18189318203869301535
18186145 218 11674879961819628590
20201158 50 18187928455584707299
20361792 2 17023478464186121836
22926399 65 9511458944494295818
23500284 5 18410300228626844499
23532345 11 18342740663253151643
3086196 2 18342170064068445169
549884 4 8214139642567786462
75552 356 18411419483833982598
81228 2 18130238038522143497

> <PUBCHEM_SHAPE_MULTIPOLES>
255.8
5.55
2.13
1.18
1.22
0.22
0.08
2.86
-1.15
-1.51
-0.36
-0.17
-0.34
-0.38

> <PUBCHEM_SHAPE_SELFOVERLAP>
511.056

> <PUBCHEM_SHAPE_VOLUME>
152.9

> <PUBCHEM_COORDINATE_TYPE>
2
5
10

$$$$
