6325127
  -OEChem-02172602583D

 48 50  0     1  0  0  0  0  0999 V2000
   -0.0800    1.0107    0.3515 O   0  0  0  0  0  0  0  0  0  0  0  0
    3.7978    2.0662   -0.9824 O   0  0  0  0  0  0  0  0  0  0  0  0
    0.7930   -0.5059    1.8744 O   0  0  0  0  0  0  0  0  0  0  0  0
    5.2173   -1.0493   -0.6980 O   0  0  0  0  0  0  0  0  0  0  0  0
   -1.5499   -0.6472   -0.3799 O   0  0  0  0  0  0  0  0  0  0  0  0
   -2.2815    2.5095    1.3083 O   0  0  0  0  0  0  0  0  0  0  0  0
   -4.7472    1.9238   -0.1943 O   0  0  0  0  0  0  0  0  0  0  0  0
   -5.2011   -0.9282   -0.3224 O   0  0  0  0  0  0  0  0  0  0  0  0
   -1.7681   -3.3525   -0.8157 O   0  0  0  0  0  0  0  0  0  0  0  0
    2.3165    0.7448    0.3720 C   0  0  2  0  0  0  0  0  0  0  0  0
    2.6937    1.1537   -1.0688 C   0  0  2  0  0  0  0  0  0  0  0  0
    3.4721   -0.2073    0.7416 C   0  0  2  0  0  0  0  0  0  0  0  0
    3.8046   -0.9638   -0.5545 C   0  0  1  0  0  0  0  0  0  0  0  0
    3.1929   -0.1515   -1.7053 C   0  0  0  0  0  0  0  0  0  0  0  0
    0.9534    0.0493    0.5599 C   0  0  2  0  0  0  0  0  0  0  0  0
    1.6078    1.8272   -1.8962 C   0  0  0  0  0  0  0  0  0  0  0  0
    3.1196   -1.1202    1.8706 C   0  0  0  0  0  0  0  0  0  0  0  0
   -1.3719    0.4322    0.5343 C   0  0  2  0  0  0  0  0  0  0  0  0
    1.8769   -1.1826    2.3572 C   0  0  0  0  0  0  0  0  0  0  0  0
   -2.4149    1.5219    0.2864 C   0  0  1  0  0  0  0  0  0  0  0  0
   -3.8330    0.9512    0.3144 C   0  0  2  0  0  0  0  0  0  0  0  0
   -3.9426   -0.3013   -0.5554 C   0  0  1  0  0  0  0  0  0  0  0  0
   -2.8182   -1.2878   -0.2312 C   0  0  1  0  0  0  0  0  0  0  0  0
   -2.8373   -2.4929   -1.1663 C   0  0  0  0  0  0  0  0  0  0  0  0
    2.3550    1.6224    1.0329 H   0  0  0  0  0  0  0  0  0  0  0  0
    4.3387    0.3849    1.0661 H   0  0  0  0  0  0  0  0  0  0  0  0
    3.4080   -1.9858   -0.5591 H   0  0  0  0  0  0  0  0  0  0  0  0
    3.9144    0.0335   -2.5086 H   0  0  0  0  0  0  0  0  0  0  0  0
    2.3487   -0.7144   -2.1214 H   0  0  0  0  0  0  0  0  0  0  0  0
    0.8491   -0.7637   -0.1701 H   0  0  0  0  0  0  0  0  0  0  0  0
    0.7618    1.1626   -2.0952 H   0  0  0  0  0  0  0  0  0  0  0  0
    1.2402    2.7283   -1.3932 H   0  0  0  0  0  0  0  0  0  0  0  0
    2.0103    2.1548   -2.8618 H   0  0  0  0  0  0  0  0  0  0  0  0
    3.9081   -1.7079    2.3299 H   0  0  0  0  0  0  0  0  0  0  0  0
   -1.4661    0.0734    1.5676 H   0  0  0  0  0  0  0  0  0  0  0  0
    4.6016    1.5798   -0.7359 H   0  0  0  0  0  0  0  0  0  0  0  0
   -2.2212    2.0208   -0.6716 H   0  0  0  0  0  0  0  0  0  0  0  0
    1.6081   -1.7753    3.2199 H   0  0  0  0  0  0  0  0  0  0  0  0
    5.3979   -1.5031   -1.5388 H   0  0  0  0  0  0  0  0  0  0  0  0
   -4.1494    0.7327    1.3419 H   0  0  0  0  0  0  0  0  0  0  0  0
   -3.9072   -0.0036   -1.6115 H   0  0  0  0  0  0  0  0  0  0  0  0
   -2.9053   -1.6570    0.7997 H   0  0  0  0  0  0  0  0  0  0  0  0
   -2.6890   -2.1826   -2.2061 H   0  0  0  0  0  0  0  0  0  0  0  0
   -3.7710   -3.0563   -1.0854 H   0  0  0  0  0  0  0  0  0  0  0  0
   -2.8834    3.2412    1.0919 H   0  0  0  0  0  0  0  0  0  0  0  0
   -4.7366    2.6836    0.4115 H   0  0  0  0  0  0  0  0  0  0  0  0
   -5.3566   -1.5609   -1.0434 H   0  0  0  0  0  0  0  0  0  0  0  0
   -1.7944   -4.1080   -1.4273 H   0  0  0  0  0  0  0  0  0  0  0  0
  1 15  1  0  0  0  0
  1 18  1  0  0  0  0
  2 11  1  0  0  0  0
  2 36  1  0  0  0  0
  3 15  1  0  0  0  0
  3 19  1  0  0  0  0
  4 13  1  0  0  0  0
  4 39  1  0  0  0  0
  5 18  1  0  0  0  0
  5 23  1  0  0  0  0
  6 20  1  0  0  0  0
  6 45  1  0  0  0  0
  7 21  1  0  0  0  0
  7 46  1  0  0  0  0
  8 22  1  0  0  0  0
  8 47  1  0  0  0  0
  9 24  1  0  0  0  0
  9 48  1  0  0  0  0
 10 11  1  0  0  0  0
 10 12  1  0  0  0  0
 10 15  1  0  0  0  0
 10 25  1  0  0  0  0
 11 14  1  0  0  0  0
 11 16  1  0  0  0  0
 12 13  1  0  0  0  0
 12 17  1  0  0  0  0
 12 26  1  0  0  0  0
 13 14  1  0  0  0  0
 13 27  1  0  0  0  0
 14 28  1  0  0  0  0
 14 29  1  0  0  0  0
 15 30  1  0  0  0  0
 16 31  1  0  0  0  0
 16 32  1  0  0  0  0
 16 33  1  0  0  0  0
 17 19  2  0  0  0  0
 17 34  1  0  0  0  0
 18 20  1  0  0  0  0
 18 35  1  0  0  0  0
 19 38  1  0  0  0  0
 20 21  1  0  0  0  0
 20 37  1  0  0  0  0
 21 22  1  0  0  0  0
 21 40  1  0  0  0  0
 22 23  1  0  0  0  0
 22 41  1  0  0  0  0
 23 24  1  0  0  0  0
 23 42  1  0  0  0  0
 24 43  1  0  0  0  0
 24 44  1  0  0  0  0
M  END
> <PUBCHEM_COMPOUND_CID>
6325127

> <PUBCHEM_CONFORMER_RMSD>
0.8

> <PUBCHEM_CONFORMER_DIVERSEORDER>
3
8
59
35
58
42
22
23
20
53
18
15
40
57
1
30
50
9
7
5
49
47
48
25
11
61
32
21
34
14
6
45
43
56
38
44
54
51
28
36
10
52
4
29
2
31
17
37
41
55
19
60
39
46
27
24
16
33
13
26
12

> <PUBCHEM_MMFF94_PARTIAL_CHARGES>
29
1 -0.56
11 0.28
12 0.14
13 0.28
15 0.56
17 -0.29
18 0.56
19 -0.07
2 -0.68
20 0.28
21 0.28
22 0.28
23 0.28
24 0.28
3 -0.36
34 0.15
36 0.4
38 0.15
39 0.4
4 -0.68
45 0.4
46 0.4
47 0.4
48 0.4
5 -0.56
6 -0.68
7 -0.68
8 -0.68
9 -0.68

> <PUBCHEM_EFFECTIVE_ROTOR_COUNT>
5.2

> <PUBCHEM_PHARMACOPHORE_FEATURES>
18
1 1 acceptor
1 2 acceptor
1 2 donor
1 3 acceptor
1 4 acceptor
1 4 donor
1 5 acceptor
1 6 acceptor
1 6 donor
1 7 acceptor
1 7 donor
1 8 acceptor
1 8 donor
1 9 acceptor
1 9 donor
5 10 11 12 13 14 rings
6 3 10 12 15 17 19 rings
6 5 18 20 21 22 23 rings

> <PUBCHEM_HEAVY_ATOM_COUNT>
24

> <PUBCHEM_ATOM_DEF_STEREO_COUNT>
10

> <PUBCHEM_ATOM_UDEF_STEREO_COUNT>
0

> <PUBCHEM_BOND_DEF_STEREO_COUNT>
0

> <PUBCHEM_BOND_UDEF_STEREO_COUNT>
0

> <PUBCHEM_ISOTOPIC_ATOM_COUNT>
0

> <PUBCHEM_COMPONENT_COUNT>
1

> <PUBCHEM_CACTVS_TAUTO_COUNT>
1

> <PUBCHEM_CONFORMER_ID>
0060838700000003

> <PUBCHEM_MMFF94_ENERGY>
75.6286

> <PUBCHEM_FEATURE_SELFOVERLAP>
91.606

> <PUBCHEM_SHAPE_FINGERPRINT>
10366900 7 16630812101304104348
11370993 70 18130510738548015134
11725454 13 14491859688456802661
11796584 16 17846503582738663102
12236239 1 18261110746991064216
12363563 72 15698009504763335130
12596599 1 18260829315011596918
12633257 1 15051730914994598502
12788726 201 18343026622745697897
13134695 92 16154246379084684944
13224815 77 17822290218679767017
13583140 156 17530975652936917593
14115302 16 18343865498055681312
14294032 229 18124875656638732269
14386348 63 16845290553079101670
16752209 62 18342165662275735611
17349148 13 18271799116931287127
1813 80 17606950699456881826
18186145 218 17385726928122233676
19862831 5 18187085061277511944
20511986 3 18261940929657097156
20600515 1 17916562294443635425
20645476 183 18260267439090182147
21486144 27 15791731901674267889
21634736 98 18261111923854203760
21639500 275 17095238155087031152
2255824 54 17822012029896304664
23557571 272 18131342042521810872
23559900 14 17917707998481381512
23598288 3 18337399330903717843
23598291 2 17969779679123767387
238 59 16515953874129994590
3004659 81 18408880750425087759
3060560 45 17458064880819986698
338550 245 18339357461833154191
4409770 3 15524319292226234619
474 4 17531813587775904428
574716 61 18040994093872409871
602551 16 18130780153267172746
633830 44 17749116616403206396
9709674 26 17845926433185205495
9981440 41 17398959756996131728

> <PUBCHEM_SHAPE_MULTIPOLES>
441.08
9.6
2.5
1.78
3.33
0.45
0.39
0.36
-1.97
1.49
-0.6
-1.46
0.34
-2.22

> <PUBCHEM_SHAPE_SELFOVERLAP>
927.033

> <PUBCHEM_SHAPE_VOLUME>
244.8

> <PUBCHEM_COORDINATE_TYPE>
2
5
10

$$$$
