158539
  -OEChem-02172602583D

 53 55  0     1  0  0  0  0  0999 V2000
    5.2449    0.5156    0.8927 O   0  0  0  0  0  0  0  0  0  0  0  0
    0.7810   -0.7036    0.1436 C   0  0  1  0  0  0  0  0  0  0  0  0
    1.6385    0.5031   -0.3861 C   0  0  2  0  0  0  0  0  0  0  0  0
   -0.6998   -0.4966   -0.4026 C   0  0  2  0  0  0  0  0  0  0  0  0
    3.2042    0.3570   -0.3395 C   0  0  2  0  0  0  0  0  0  0  0  0
    1.3472   -2.0308   -0.4218 C   0  0  0  0  0  0  0  0  0  0  0  0
    1.1038    1.8276    0.2022 C   0  0  0  0  0  0  0  0  0  0  0  0
    3.6142   -1.0406   -0.8643 C   0  0  0  0  0  0  0  0  0  0  0  0
   -1.1985    0.9379   -0.2704 C   0  0  0  0  0  0  0  0  0  0  0  0
    2.8494   -2.1865   -0.2148 C   0  0  0  0  0  0  0  0  0  0  0  0
   -1.7137   -1.4993    0.1968 C   0  0  0  0  0  0  0  0  0  0  0  0
    0.7667   -0.7880    1.6915 C   0  0  0  0  0  0  0  0  0  0  0  0
   -3.6271    0.1927    0.0413 C   0  0  1  0  0  0  0  0  0  0  0  0
   -2.6494    1.1892   -0.6138 C   0  0  0  0  0  0  0  0  0  0  0  0
   -0.3830    1.9596    0.0440 C   0  0  0  0  0  0  0  0  0  0  0  0
   -3.1521   -1.2447   -0.2591 C   0  0  0  0  0  0  0  0  0  0  0  0
    3.8443    0.5978    1.0422 C   0  0  0  0  0  0  0  0  0  0  0  0
    3.8414    1.4032   -1.2931 C   0  0  0  0  0  0  0  0  0  0  0  0
   -3.7318    0.4475    1.5557 C   0  0  0  0  0  0  0  0  0  0  0  0
   -5.0028    0.3854   -0.5503 C   0  0  0  0  0  0  0  0  0  0  0  0
   -6.0773   -0.3266   -0.1940 C   0  0  0  0  0  0  0  0  0  0  0  0
    1.4111    0.5457   -1.4656 H   0  0  0  0  0  0  0  0  0  0  0  0
   -0.6774   -0.6894   -1.4865 H   0  0  0  0  0  0  0  0  0  0  0  0
    1.1419   -2.0894   -1.4990 H   0  0  0  0  0  0  0  0  0  0  0  0
    0.8410   -2.8910    0.0322 H   0  0  0  0  0  0  0  0  0  0  0  0
    1.5666    2.6726   -0.3190 H   0  0  0  0  0  0  0  0  0  0  0  0
    1.3543    1.9311    1.2628 H   0  0  0  0  0  0  0  0  0  0  0  0
    4.6901   -1.2166   -0.7467 H   0  0  0  0  0  0  0  0  0  0  0  0
    3.4282   -1.0844   -1.9468 H   0  0  0  0  0  0  0  0  0  0  0  0
    3.0895   -2.2570    0.8510 H   0  0  0  0  0  0  0  0  0  0  0  0
    3.1737   -3.1320   -0.6661 H   0  0  0  0  0  0  0  0  0  0  0  0
   -1.7018   -1.4692    1.2905 H   0  0  0  0  0  0  0  0  0  0  0  0
   -1.4375   -2.5205   -0.0893 H   0  0  0  0  0  0  0  0  0  0  0  0
    0.2197    0.0415    2.1498 H   0  0  0  0  0  0  0  0  0  0  0  0
    0.2933   -1.7150    2.0339 H   0  0  0  0  0  0  0  0  0  0  0  0
    1.7606   -0.8021    2.1296 H   0  0  0  0  0  0  0  0  0  0  0  0
   -2.9381    2.2169   -0.3538 H   0  0  0  0  0  0  0  0  0  0  0  0
   -2.7332    1.1202   -1.7083 H   0  0  0  0  0  0  0  0  0  0  0  0
   -0.7853    2.9661    0.1268 H   0  0  0  0  0  0  0  0  0  0  0  0
   -3.2159   -1.4439   -1.3380 H   0  0  0  0  0  0  0  0  0  0  0  0
   -3.7996   -1.9841    0.2294 H   0  0  0  0  0  0  0  0  0  0  0  0
    3.5637   -0.1490    1.7809 H   0  0  0  0  0  0  0  0  0  0  0  0
    3.6019    1.5895    1.4355 H   0  0  0  0  0  0  0  0  0  0  0  0
    4.9098    1.2183   -1.4538 H   0  0  0  0  0  0  0  0  0  0  0  0
    3.3683    1.3761   -2.2816 H   0  0  0  0  0  0  0  0  0  0  0  0
    3.7395    2.4222   -0.9051 H   0  0  0  0  0  0  0  0  0  0  0  0
   -4.1908    1.4218    1.7648 H   0  0  0  0  0  0  0  0  0  0  0  0
   -4.3300   -0.3181    2.0630 H   0  0  0  0  0  0  0  0  0  0  0  0
   -2.7492    0.4523    2.0394 H   0  0  0  0  0  0  0  0  0  0  0  0
   -5.1366    1.1519   -1.3103 H   0  0  0  0  0  0  0  0  0  0  0  0
    5.6397    0.6801    1.7659 H   0  0  0  0  0  0  0  0  0  0  0  0
   -7.0376   -0.1324   -0.6602 H   0  0  0  0  0  0  0  0  0  0  0  0
   -6.0346   -1.1086    0.5552 H   0  0  0  0  0  0  0  0  0  0  0  0
  1 17  1  0  0  0  0
  1 51  1  0  0  0  0
  2  3  1  0  0  0  0
  2  4  1  0  0  0  0
  2  6  1  0  0  0  0
  2 12  1  0  0  0  0
  3  5  1  0  0  0  0
  3  7  1  0  0  0  0
  3 22  1  0  0  0  0
  4  9  1  0  0  0  0
  4 11  1  0  0  0  0
  4 23  1  0  0  0  0
  5  8  1  0  0  0  0
  5 17  1  0  0  0  0
  5 18  1  0  0  0  0
  6 10  1  0  0  0  0
  6 24  1  0  0  0  0
  6 25  1  0  0  0  0
  7 15  1  0  0  0  0
  7 26  1  0  0  0  0
  7 27  1  0  0  0  0
  8 10  1  0  0  0  0
  8 28  1  0  0  0  0
  8 29  1  0  0  0  0
  9 14  1  0  0  0  0
  9 15  2  0  0  0  0
 10 30  1  0  0  0  0
 10 31  1  0  0  0  0
 11 16  1  0  0  0  0
 11 32  1  0  0  0  0
 11 33  1  0  0  0  0
 12 34  1  0  0  0  0
 12 35  1  0  0  0  0
 12 36  1  0  0  0  0
 13 14  1  0  0  0  0
 13 16  1  0  0  0  0
 13 19  1  0  0  0  0
 13 20  1  0  0  0  0
 14 37  1  0  0  0  0
 14 38  1  0  0  0  0
 15 39  1  0  0  0  0
 16 40  1  0  0  0  0
 16 41  1  0  0  0  0
 17 42  1  0  0  0  0
 17 43  1  0  0  0  0
 18 44  1  0  0  0  0
 18 45  1  0  0  0  0
 18 46  1  0  0  0  0
 19 47  1  0  0  0  0
 19 48  1  0  0  0  0
 19 49  1  0  0  0  0
 20 21  2  0  0  0  0
 20 50  1  0  0  0  0
 21 52  1  0  0  0  0
 21 53  1  0  0  0  0
M  END
> <PUBCHEM_COMPOUND_CID>
158539

> <PUBCHEM_CONFORMER_RMSD>
0.6

> <PUBCHEM_CONFORMER_DIVERSEORDER>
2
5
6
1
4
3

> <PUBCHEM_MMFF94_PARTIAL_CHARGES>
15
1 -0.68
13 0.14
14 0.14
15 -0.29
17 0.28
20 -0.29
21 -0.3
39 0.15
4 0.14
50 0.15
51 0.4
52 0.15
53 0.15
7 0.14
9 -0.28

> <PUBCHEM_EFFECTIVE_ROTOR_COUNT>
3.8

> <PUBCHEM_PHARMACOPHORE_FEATURES>
6
1 1 acceptor
1 1 donor
1 21 hydrophobe
6 2 3 4 7 9 15 rings
6 2 3 5 6 8 10 rings
6 4 9 11 13 14 16 rings

> <PUBCHEM_HEAVY_ATOM_COUNT>
21

> <PUBCHEM_ATOM_DEF_STEREO_COUNT>
5

> <PUBCHEM_ATOM_UDEF_STEREO_COUNT>
0

> <PUBCHEM_BOND_DEF_STEREO_COUNT>
0

> <PUBCHEM_BOND_UDEF_STEREO_COUNT>
0

> <PUBCHEM_ISOTOPIC_ATOM_COUNT>
0

> <PUBCHEM_COMPONENT_COUNT>
1

> <PUBCHEM_CACTVS_TAUTO_COUNT>
1

> <PUBCHEM_CONFORMER_ID>
00026B4B00000002

> <PUBCHEM_MMFF94_ENERGY>
72.5724

> <PUBCHEM_FEATURE_SELFOVERLAP>
30.478

> <PUBCHEM_SHAPE_FINGERPRINT>
10062212 137 18263356039924177006
10906281 52 18262252113502725808
10967382 1 18410857659214805502
10980938 120 18411703166619237718
11132069 177 18408884048669742572
11471102 20 18411139134170352223
11578080 2 16914804001870221563
12011746 2 18410293605987493757
12236239 1 17676200277887723856
12403814 3 17748821921554303077
12553582 1 18338811068909879309
12596602 18 17203891864290178699
12670546 56 17561368357272082497
128620 24 18187082836653251293
13140716 1 18194960966162648816
13221675 6 18409730664281108871
13224815 77 18342172241543017458
13533116 47 17703790280535899367
14787075 74 18187932827861154745
14790565 3 18195254536210896236
15196674 1 18339361860200840605
15238133 3 14707203267537367191
15375358 24 18186804673312746515
15536298 74 18342459205609414198
15788980 27 17167859764003429417
15848702 151 17917438575082527415
1601671 61 18411699906601942428
16945 1 18410860966513872004
17349148 13 18260544511719905816
17834072 33 18130785672758908567
17980427 23 18044081583375719556
18186145 218 18342466902359678686
200 152 17988639705950679013
20645477 70 18336546027875408175
20691752 17 17532386261561442984
21267235 1 18339370673004564998
21279426 13 18193835947330640197
21285901 2 18188209801954622637
21421861 104 17969493823528601298
22182313 1 18263072224089920884
23402539 116 18334566979964967502
23557571 272 18201156560067256776
23558518 356 18047760299324893457
23559900 14 18336550426249155118
26918003 58 17022901255036262385
2748010 2 18120935010177341500
2871803 45 18334014951923281103
296302 2 17917993884194020850
3004659 81 18187085040156136124
3286 77 17131256970792169731
3323516 105 18411704270372909894
34797466 226 16128378215729993113
34934 24 18412820308897905271
350125 39 18267590104910714140
3545911 37 18412262839349088399
4072396 5 18336252497067636522
42630746 31 18413669110747722070
4340502 62 17846210085942482730
474 4 17749680678689990500
5104073 3 18339645521300035883
537710 114 18411140233724483292
59755656 215 18411422774623398742
633830 44 17748831812494635934
69090 78 18412543210819968847
7495541 125 12751230441454397133
9709674 26 18410017602224624854
9981440 41 17189523703852590417

> <PUBCHEM_SHAPE_MULTIPOLES>
426.3
10.19
1.96
1.14
6.56
0.28
0.34
-0.52
-0.37
-1.09
-0.22
-0.36
-0.07
0.06

> <PUBCHEM_SHAPE_SELFOVERLAP>
887.751

> <PUBCHEM_SHAPE_VOLUME>
240.1

> <PUBCHEM_COORDINATE_TYPE>
2
5
10

$$$$
