10183145
  -OEChem-02172602513D

 48 51  0     0  0  0  0  0  0999 V2000
    6.8044    2.4549   -0.8635 Cl  0  0  0  0  0  0  0  0  0  0  0  0
   -2.4568    1.7306   -0.7830 F   0  0  0  0  0  0  0  0  0  0  0  0
   -6.3033    3.2659    1.4994 F   0  0  0  0  0  0  0  0  0  0  0  0
    3.0112   -1.3846    1.4533 O   0  0  0  0  0  0  0  0  0  0  0  0
    0.7720   -2.7020    0.3328 N   0  0  0  0  0  0  0  0  0  0  0  0
   -2.7745   -2.4115   -2.4111 N   0  0  0  0  0  0  0  0  0  0  0  0
    2.0003    0.7874    0.0965 N   0  0  0  0  0  0  0  0  0  0  0  0
   -0.5371   -3.3246    0.4802 C   0  0  0  0  0  0  0  0  0  0  0  0
    1.7763   -3.4073    1.1150 C   0  0  0  0  0  0  0  0  0  0  0  0
   -1.5881   -2.6209   -0.3287 C   0  0  0  0  0  0  0  0  0  0  0  0
    3.1298   -2.7262    0.9904 C   0  0  0  0  0  0  0  0  0  0  0  0
   -2.3153   -1.5786    0.2175 C   0  0  0  0  0  0  0  0  0  0  0  0
   -3.2816   -0.9457   -0.5564 C   0  0  0  0  0  0  0  0  0  0  0  0
    3.8524   -0.4624    0.8959 C   0  0  0  0  0  0  0  0  0  0  0  0
    3.3329    0.6329    0.2113 C   0  0  0  0  0  0  0  0  0  0  0  0
    4.2402    1.5577   -0.3469 C   0  0  0  0  0  0  0  0  0  0  0  0
   -4.0620    0.1476   -0.0261 C   0  0  0  0  0  0  0  0  0  0  0  0
   -1.8439   -3.0024   -1.6284 C   0  0  0  0  0  0  0  0  0  0  0  0
    5.2293   -0.6538    1.0344 C   0  0  0  0  0  0  0  0  0  0  0  0
   -3.4710   -1.3958   -1.8532 C   0  0  0  0  0  0  0  0  0  0  0  0
    5.6252    1.3654   -0.2077 C   0  0  0  0  0  0  0  0  0  0  0  0
    6.1172    0.2610    0.4819 C   0  0  0  0  0  0  0  0  0  0  0  0
    3.7179    2.6605   -1.0361 C   0  0  0  0  0  0  0  0  0  0  0  0
   -3.6141    1.4632   -0.1604 C   0  0  0  0  0  0  0  0  0  0  0  0
   -5.2697   -0.1111    0.6254 C   0  0  0  0  0  0  0  0  0  0  0  0
    2.3452    2.8222   -1.1561 C   0  0  0  0  0  0  0  0  0  0  0  0
   -4.3707    2.5159    0.3546 C   0  0  0  0  0  0  0  0  0  0  0  0
   -6.0263    0.9415    1.1405 C   0  0  0  0  0  0  0  0  0  0  0  0
    1.5369    1.8653   -0.5765 C   0  0  0  0  0  0  0  0  0  0  0  0
   -5.5768    2.2549    1.0050 C   0  0  0  0  0  0  0  0  0  0  0  0
   -0.8433   -3.3325    1.5347 H   0  0  0  0  0  0  0  0  0  0  0  0
   -0.4949   -4.3760    0.1667 H   0  0  0  0  0  0  0  0  0  0  0  0
    1.8670   -4.4461    0.7780 H   0  0  0  0  0  0  0  0  0  0  0  0
    1.4806   -3.4130    2.1714 H   0  0  0  0  0  0  0  0  0  0  0  0
    0.7272   -1.7299    0.6390 H   0  0  0  0  0  0  0  0  0  0  0  0
    3.4668   -2.7558   -0.0545 H   0  0  0  0  0  0  0  0  0  0  0  0
    3.8649   -3.2529    1.6092 H   0  0  0  0  0  0  0  0  0  0  0  0
   -2.1302   -1.2575    1.2399 H   0  0  0  0  0  0  0  0  0  0  0  0
   -1.3001   -3.8125   -2.1036 H   0  0  0  0  0  0  0  0  0  0  0  0
    5.6210   -1.5081    1.5797 H   0  0  0  0  0  0  0  0  0  0  0  0
   -4.2090   -0.9442   -2.5101 H   0  0  0  0  0  0  0  0  0  0  0  0
    7.1855    0.0993    0.6001 H   0  0  0  0  0  0  0  0  0  0  0  0
    4.3530    3.4143   -1.4927 H   0  0  0  0  0  0  0  0  0  0  0  0
   -5.6353   -1.1289    0.7403 H   0  0  0  0  0  0  0  0  0  0  0  0
    1.9238    3.6686   -1.6855 H   0  0  0  0  0  0  0  0  0  0  0  0
   -4.0209    3.5385    0.2492 H   0  0  0  0  0  0  0  0  0  0  0  0
   -6.9653    0.7389    1.6471 H   0  0  0  0  0  0  0  0  0  0  0  0
    0.4560    1.9385   -0.6381 H   0  0  0  0  0  0  0  0  0  0  0  0
  1 21  1  0  0  0  0
  2 24  1  0  0  0  0
  3 30  1  0  0  0  0
  4 11  1  0  0  0  0
  4 14  1  0  0  0  0
  5  8  1  0  0  0  0
  5  9  1  0  0  0  0
  5 35  1  0  0  0  0
  6 18  2  0  0  0  0
  6 20  1  0  0  0  0
  7 15  1  0  0  0  0
  7 29  2  0  0  0  0
  8 10  1  0  0  0  0
  8 31  1  0  0  0  0
  8 32  1  0  0  0  0
  9 11  1  0  0  0  0
  9 33  1  0  0  0  0
  9 34  1  0  0  0  0
 10 12  2  0  0  0  0
 10 18  1  0  0  0  0
 11 36  1  0  0  0  0
 11 37  1  0  0  0  0
 12 13  1  0  0  0  0
 12 38  1  0  0  0  0
 13 17  1  0  0  0  0
 13 20  2  0  0  0  0
 14 15  2  0  0  0  0
 14 19  1  0  0  0  0
 15 16  1  0  0  0  0
 16 21  2  0  0  0  0
 16 23  1  0  0  0  0
 17 24  2  0  0  0  0
 17 25  1  0  0  0  0
 18 39  1  0  0  0  0
 19 22  2  0  0  0  0
 19 40  1  0  0  0  0
 20 41  1  0  0  0  0
 21 22  1  0  0  0  0
 22 42  1  0  0  0  0
 23 26  2  0  0  0  0
 23 43  1  0  0  0  0
 24 27  1  0  0  0  0
 25 28  2  0  0  0  0
 25 44  1  0  0  0  0
 26 29  1  0  0  0  0
 26 45  1  0  0  0  0
 27 30  2  0  0  0  0
 27 46  1  0  0  0  0
 28 30  1  0  0  0  0
 28 47  1  0  0  0  0
 29 48  1  0  0  0  0
M  END
> <PUBCHEM_COMPOUND_CID>
10183145

> <PUBCHEM_CONFORMER_RMSD>
1.2

> <PUBCHEM_CONFORMER_DIVERSEORDER>
4
16
216
188
226
235
231
70
63
236
217
264
24
68
220
199
203
170
252
26
208
201
148
83
159
38
57
53
36
90
9
261
191
189
31
171
67
88
256
266
194
10
73
138
173
79
150
99
177
1
254
60
243
270
126
167
14
121
132
278
202
22
129
140
119
246
227
258
182
205
273
139
164
142
11
33
178
248
66
204
115
147
269
222
190
172
23
15
265
250
27
179
56
103
192
35
113
218
77
2
112
123
96
174
12
61
223
193
32
141
29
131
238
127
5
97
130
28
143
136
156
76
128
3
242
118
134
255
234
198
197
49
13
89
144
21
104
247
268
109
39
37
219
212
275
42
95
239
181
81
153
157
186
133
20
47
106
207
108
211
200
187
54
78
152
92
137
209
117
274
146
271
93
279
282
116
43
80
125
64
30
272
69
183
162
122
114
84
25
281
100
71
158
196
86
232
259
165
251
45
17
221
168
225
280
263
41
51
101
52
206
176
102
145
59
34
260
224
267
262
249
135
105
244
87
107
253
241
94
161
210
44
166
245
169
58
98
82
214
7
85
149
74
62
160
151
213
237
257
110
50
184
180
6
233
229
228
111
46
175
18
215
55
240
276
8
65
195
19
230
48
75
72
120
154
277
40
124
163
155
91
185

> <PUBCHEM_MMFF94_PARTIAL_CHARGES>
39
1 -0.18
10 -0.14
11 0.28
12 -0.15
14 0.08
15 0.31
18 0.16
19 -0.15
2 -0.19
20 0.16
21 0.18
22 -0.15
23 -0.15
24 0.19
25 -0.15
26 -0.15
27 -0.15
28 -0.15
29 0.16
3 -0.19
30 0.19
35 0.36
38 0.15
39 0.15
4 -0.36
40 0.15
41 0.15
42 0.15
43 0.15
44 0.15
45 0.15
46 0.15
47 0.15
48 0.15
5 -0.9
6 -0.62
7 -0.62
8 0.41
9 0.27

> <PUBCHEM_EFFECTIVE_ROTOR_COUNT>
7

> <PUBCHEM_PHARMACOPHORE_FEATURES>
9
1 4 acceptor
1 5 cation
1 5 donor
1 6 acceptor
1 7 acceptor
6 14 15 16 19 21 22 rings
6 17 24 25 27 28 30 rings
6 6 10 12 13 18 20 rings
6 7 15 16 23 26 29 rings

> <PUBCHEM_HEAVY_ATOM_COUNT>
30

> <PUBCHEM_ATOM_DEF_STEREO_COUNT>
0

> <PUBCHEM_ATOM_UDEF_STEREO_COUNT>
0

> <PUBCHEM_BOND_DEF_STEREO_COUNT>
0

> <PUBCHEM_BOND_UDEF_STEREO_COUNT>
0

> <PUBCHEM_ISOTOPIC_ATOM_COUNT>
0

> <PUBCHEM_COMPONENT_COUNT>
1

> <PUBCHEM_CACTVS_TAUTO_COUNT>
1

> <PUBCHEM_CONFORMER_ID>
009B61E900000004

> <PUBCHEM_MMFF94_ENERGY>
88.8667

> <PUBCHEM_FEATURE_SELFOVERLAP>
45.708

> <PUBCHEM_SHAPE_FINGERPRINT>
100830 2 18410580590912009360
10674148 151 18413395333275520094
11059048 146 18190185778894789686
11135926 11 18187074067031607382
11513181 2 18273492364875888902
12107183 9 18409442558212919322
12422481 6 18189900799615395625
12788726 201 18057595659270626015
12978246 48 18409444761172251145
13398642 44 17968392237209958149
13627175 23 18335418002260213511
14020679 6 17603594023189642610
14294032 229 17847063307646417911
14394314 77 18411139142756038625
14765038 42 18335704970495022340
14790565 3 18261110824901992172
15001296 14 18188770673107338456
15183329 4 18187918534795387310
15297060 5 17917709080855565914
16067690 210 16773513287230261400
16110190 28 18334859411160943005
16112460 7 18335983151226652528
16760501 71 18335141947479658339
17809404 112 16199879452341581213
21120745 212 18056749048408056991
245318 6 18187379743553049381
338550 245 18335140886501267316
3388396 114 17262425713940077940
3411729 13 18196946470463872601
3552219 110 18191018101325390143
3610482 184 18264220277654484316
38570 142 18335996310964307918
57724786 102 18336541617002530586
7288768 16 17967254225701537027

> <PUBCHEM_SHAPE_MULTIPOLES>
583.9
16.43
4.71
1.5
2.54
1.58
0.51
-13.67
-3.31
-1.21
0.03
-1.08
0.55
-4.8

> <PUBCHEM_SHAPE_SELFOVERLAP>
1275.448

> <PUBCHEM_SHAPE_VOLUME>
318.6

> <PUBCHEM_COORDINATE_TYPE>
2
5
10

$$$$
