102213697
  -OEChem-02172602523D

 44 45  0     1  0  0  0  0  0999 V2000
   -3.7900   -0.6561   -1.5528 Br  0  0  0  0  0  0  0  0  0  0  0  0
    3.6613   -1.7694    0.7140 O   0  0  0  0  0  0  0  0  0  0  0  0
    0.5657    0.3905   -1.7558 O   0  0  0  0  0  0  0  0  0  0  0  0
   -1.4942   -2.8708   -0.7005 O   0  0  0  0  0  0  0  0  0  0  0  0
   -2.2876    0.9883    1.0752 O   0  0  0  0  0  0  0  0  0  0  0  0
    0.5681    2.1894   -0.3061 N   0  0  0  0  0  0  0  0  0  0  0  0
   -0.9575   -0.7636    0.3053 N   0  0  0  0  0  0  0  0  0  0  0  0
    0.7136   -2.2673   -0.1436 N   0  0  0  0  0  0  0  0  0  0  0  0
    0.3072   -0.0817    0.5644 C   0  0  1  0  0  0  0  0  0  0  0  0
    1.3415   -1.2050    0.6265 C   0  0  2  0  0  0  0  0  0  0  0  0
    0.4898    0.8430   -0.6123 C   0  0  0  0  0  0  0  0  0  0  0  0
    0.7507    3.2094   -1.3282 C   0  0  0  0  0  0  0  0  0  0  0  0
    0.4817    2.7885    1.0220 C   0  0  0  0  0  0  0  0  0  0  0  0
    0.4561    4.5200   -0.6148 C   0  0  0  0  0  0  0  0  0  0  0  0
    0.9039    4.2360    0.8134 C   0  0  0  0  0  0  0  0  0  0  0  0
    2.7461   -0.8322    0.1735 C   0  0  0  0  0  0  0  0  0  0  0  0
   -0.6853   -2.0748   -0.2410 C   0  0  0  0  0  0  0  0  0  0  0  0
   -2.1821   -0.1467    0.6076 C   0  0  0  0  0  0  0  0  0  0  0  0
    1.3913   -3.5047   -0.4762 C   0  0  0  0  0  0  0  0  0  0  0  0
   -3.4090   -0.9720    0.3222 C   0  0  1  0  0  0  0  0  0  0  0  0
   -4.5710   -0.5413    1.1784 C   0  0  0  0  0  0  0  0  0  0  0  0
    4.9999   -1.4796    0.3287 C   0  0  0  0  0  0  0  0  0  0  0  0
    0.2380    0.4266    1.5254 H   0  0  0  0  0  0  0  0  0  0  0  0
    1.3797   -1.5879    1.6563 H   0  0  0  0  0  0  0  0  0  0  0  0
    0.0930    3.0272   -2.1832 H   0  0  0  0  0  0  0  0  0  0  0  0
    1.7919    3.1594   -1.6653 H   0  0  0  0  0  0  0  0  0  0  0  0
    1.1423    2.2842    1.7323 H   0  0  0  0  0  0  0  0  0  0  0  0
   -0.5525    2.7297    1.3688 H   0  0  0  0  0  0  0  0  0  0  0  0
   -0.6215    4.7230   -0.6312 H   0  0  0  0  0  0  0  0  0  0  0  0
    0.9735    5.3712   -1.0653 H   0  0  0  0  0  0  0  0  0  0  0  0
    1.9950    4.3234    0.8826 H   0  0  0  0  0  0  0  0  0  0  0  0
    0.4584    4.9150    1.5454 H   0  0  0  0  0  0  0  0  0  0  0  0
    2.8275   -0.8233   -0.9196 H   0  0  0  0  0  0  0  0  0  0  0  0
    3.0074    0.1608    0.5584 H   0  0  0  0  0  0  0  0  0  0  0  0
    2.2389   -3.2898   -1.1311 H   0  0  0  0  0  0  0  0  0  0  0  0
    0.7059   -4.1851   -0.9882 H   0  0  0  0  0  0  0  0  0  0  0  0
    1.7386   -3.9760    0.4471 H   0  0  0  0  0  0  0  0  0  0  0  0
   -3.2496   -2.0384    0.4750 H   0  0  0  0  0  0  0  0  0  0  0  0
   -5.4618   -1.1413    0.9609 H   0  0  0  0  0  0  0  0  0  0  0  0
   -4.3382   -0.6632    2.2421 H   0  0  0  0  0  0  0  0  0  0  0  0
   -4.8421    0.5091    1.0198 H   0  0  0  0  0  0  0  0  0  0  0  0
    5.6562   -2.2312    0.7753 H   0  0  0  0  0  0  0  0  0  0  0  0
    5.2990   -0.4924    0.6941 H   0  0  0  0  0  0  0  0  0  0  0  0
    5.1037   -1.5273   -0.7596 H   0  0  0  0  0  0  0  0  0  0  0  0
  1 20  1  0  0  0  0
  2 16  1  0  0  0  0
  2 22  1  0  0  0  0
  3 11  2  0  0  0  0
  4 17  2  0  0  0  0
  5 18  2  0  0  0  0
  6 11  1  0  0  0  0
  6 12  1  0  0  0  0
  6 13  1  0  0  0  0
  7  9  1  0  0  0  0
  7 17  1  0  0  0  0
  7 18  1  0  0  0  0
  8 10  1  0  0  0  0
  8 17  1  0  0  0  0
  8 19  1  0  0  0  0
  9 10  1  0  0  0  0
  9 11  1  0  0  0  0
  9 23  1  0  0  0  0
 10 16  1  0  0  0  0
 10 24  1  0  0  0  0
 12 14  1  0  0  0  0
 12 25  1  0  0  0  0
 12 26  1  0  0  0  0
 13 15  1  0  0  0  0
 13 27  1  0  0  0  0
 13 28  1  0  0  0  0
 14 15  1  0  0  0  0
 14 29  1  0  0  0  0
 14 30  1  0  0  0  0
 15 31  1  0  0  0  0
 15 32  1  0  0  0  0
 16 33  1  0  0  0  0
 16 34  1  0  0  0  0
 18 20  1  0  0  0  0
 19 35  1  0  0  0  0
 19 36  1  0  0  0  0
 19 37  1  0  0  0  0
 20 21  1  0  0  0  0
 20 38  1  0  0  0  0
 21 39  1  0  0  0  0
 21 40  1  0  0  0  0
 21 41  1  0  0  0  0
 22 42  1  0  0  0  0
 22 43  1  0  0  0  0
 22 44  1  0  0  0  0
M  END
> <PUBCHEM_COMPOUND_CID>
102213697

> <PUBCHEM_CONFORMER_RMSD>
0.8

> <PUBCHEM_CONFORMER_DIVERSEORDER>
1
12
21
10
22
15
23
14
3
17
6
16
4
20
8
9
13
19
7
18
5
11
2

> <PUBCHEM_MMFF94_PARTIAL_CHARGES>
19
1 -0.23
10 0.3
11 0.57
12 0.3
13 0.3
16 0.28
17 0.69
18 0.57
19 0.3
2 -0.56
20 0.29
22 0.28
3 -0.57
4 -0.57
5 -0.57
6 -0.66
7 -0.42
8 -0.66
9 0.36

> <PUBCHEM_EFFECTIVE_ROTOR_COUNT>
7.8

> <PUBCHEM_PHARMACOPHORE_FEATURES>
8
1 1 hydrophobe
1 2 acceptor
1 3 acceptor
1 4 acceptor
1 5 acceptor
3 1 20 21 hydrophobe
5 6 12 13 14 15 rings
5 7 8 9 10 17 rings

> <PUBCHEM_HEAVY_ATOM_COUNT>
22

> <PUBCHEM_ATOM_DEF_STEREO_COUNT>
2

> <PUBCHEM_ATOM_UDEF_STEREO_COUNT>
1

> <PUBCHEM_BOND_DEF_STEREO_COUNT>
0

> <PUBCHEM_BOND_UDEF_STEREO_COUNT>
0

> <PUBCHEM_ISOTOPIC_ATOM_COUNT>
0

> <PUBCHEM_COMPONENT_COUNT>
1

> <PUBCHEM_CACTVS_TAUTO_COUNT>
1

> <PUBCHEM_CONFORMER_ID>
0617A84100000001

> <PUBCHEM_MMFF94_ENERGY>
58.4029

> <PUBCHEM_FEATURE_SELFOVERLAP>
41.536

> <PUBCHEM_SHAPE_FINGERPRINT>
1100329 8 18195254536099282010
11582403 64 15765253668559961057
12788726 201 17760341328594948581
13004483 165 18050277073320228715
13132413 78 18341898454684601065
13134695 92 18334005099452920383
13140716 1 18195532716936816819
13294875 104 18051707821162930380
14713325 29 17977665299931705330
14955137 171 18337972158723127802
16945 1 18341611533847932883
17980427 23 17775280607898302285
1813 80 18342749480916196246
18785283 64 18191884511659547939
19765921 60 17698176376143787945
20028762 73 15027551941964032510
20600515 1 18201726162787863146
20671657 1 18194971961563548689
20739085 24 18339092539680949664
21029758 27 18408046195071488570
21524375 3 17685775027111342353
23366157 5 17900532681841272586
23402539 116 18200584809193459759
23419403 2 17896577609414040068
23558518 356 17402621134731108820
266924 87 18050275969334493518
2748010 2 18124598583179833007
283562 15 18191863427670522490
350125 39 17976827815199322403
5845 1 18045233639042212829
7364860 26 18338803445458583857
81228 2 17757280283722466256
84936 182 17909836774994897313
9981440 41 17257363575295792120

> <PUBCHEM_SHAPE_MULTIPOLES>
420.27
6.05
5.32
1.29
2.7
4.74
0.29
-3.8
-0.98
-5.18
0.52
0.69
0.53
-0.62

> <PUBCHEM_SHAPE_SELFOVERLAP>
847.293

> <PUBCHEM_SHAPE_VOLUME>
251

> <PUBCHEM_COORDINATE_TYPE>
2
5
10

$$$$
