10183143
  -OEChem-02172602533D

 39 41  0     0  0  0  0  0  0999 V2000
    6.2756   -1.2930   -2.4468 Br  0  0  0  0  0  0  0  0  0  0  0  0
   -8.1255   -2.8602   -1.3450 Br  0  0  0  0  0  0  0  0  0  0  0  0
   -4.8256    1.0783   -0.2248 O   0  0  0  0  0  0  0  0  0  0  0  0
    2.1876   -0.3439    0.7578 N   0  0  0  0  0  0  0  0  0  0  0  0
   -2.8935   -0.1839    0.2347 N   0  0  0  0  0  0  0  0  0  0  0  0
    1.1982    3.5621   -0.1867 N   0  0  0  0  0  0  0  0  0  0  0  0
    2.8392    1.8772    0.3375 N   0  0  0  0  0  0  0  0  0  0  0  0
    0.4920    1.3095    0.2355 C   0  0  0  0  0  0  0  0  0  0  0  0
    0.2164    2.6494   -0.0824 C   0  0  0  0  0  0  0  0  0  0  0  0
    1.8320    0.9891    0.4340 C   0  0  0  0  0  0  0  0  0  0  0  0
   -0.5425    0.3638    0.3417 C   0  0  0  0  0  0  0  0  0  0  0  0
   -1.8624    0.7500    0.1307 C   0  0  0  0  0  0  0  0  0  0  0  0
   -1.1134    3.0083   -0.2881 C   0  0  0  0  0  0  0  0  0  0  0  0
   -2.1479    2.0739   -0.1844 C   0  0  0  0  0  0  0  0  0  0  0  0
    3.3388   -1.1058    0.5024 C   0  0  0  0  0  0  0  0  0  0  0  0
    2.4561    3.1265    0.0288 C   0  0  0  0  0  0  0  0  0  0  0  0
    4.1033   -0.8659   -0.6434 C   0  0  0  0  0  0  0  0  0  0  0  0
    3.7286   -2.1105    1.3931 C   0  0  0  0  0  0  0  0  0  0  0  0
    5.2471   -1.6232   -0.8959 C   0  0  0  0  0  0  0  0  0  0  0  0
    4.8724   -2.8680    1.1405 C   0  0  0  0  0  0  0  0  0  0  0  0
   -4.2685    0.0241    0.0574 C   0  0  0  0  0  0  0  0  0  0  0  0
    5.6315   -2.6244   -0.0040 C   0  0  0  0  0  0  0  0  0  0  0  0
   -5.0462   -1.2349    0.2563 C   0  0  0  0  0  0  0  0  0  0  0  0
   -6.3804   -1.2387    0.1265 C   0  0  0  0  0  0  0  0  0  0  0  0
   -7.2129   -2.4597    0.3248 C   0  0  0  0  0  0  0  0  0  0  0  0
   -0.3376   -0.6772    0.5790 H   0  0  0  0  0  0  0  0  0  0  0  0
   -1.3621    4.0387   -0.5361 H   0  0  0  0  0  0  0  0  0  0  0  0
   -3.1426    2.4574   -0.3635 H   0  0  0  0  0  0  0  0  0  0  0  0
    1.5898   -0.7487    1.4731 H   0  0  0  0  0  0  0  0  0  0  0  0
   -2.5921   -1.1277    0.4687 H   0  0  0  0  0  0  0  0  0  0  0  0
    3.2425    3.8664   -0.0570 H   0  0  0  0  0  0  0  0  0  0  0  0
    3.8036   -0.0968   -1.3518 H   0  0  0  0  0  0  0  0  0  0  0  0
    3.1474   -2.3113    2.2898 H   0  0  0  0  0  0  0  0  0  0  0  0
    5.1718   -3.6474    1.8351 H   0  0  0  0  0  0  0  0  0  0  0  0
    6.5199   -3.2236   -0.1860 H   0  0  0  0  0  0  0  0  0  0  0  0
   -4.5090   -2.1443    0.5044 H   0  0  0  0  0  0  0  0  0  0  0  0
   -6.9113   -0.3197   -0.1105 H   0  0  0  0  0  0  0  0  0  0  0  0
   -6.6295   -3.3467    0.5859 H   0  0  0  0  0  0  0  0  0  0  0  0
   -7.9841   -2.2936    1.0811 H   0  0  0  0  0  0  0  0  0  0  0  0
  1 19  1  0  0  0  0
  2 25  1  0  0  0  0
  3 21  2  0  0  0  0
  4 10  1  0  0  0  0
  4 15  1  0  0  0  0
  4 29  1  0  0  0  0
  5 12  1  0  0  0  0
  5 21  1  0  0  0  0
  5 30  1  0  0  0  0
  6  9  1  0  0  0  0
  6 16  2  0  0  0  0
  7 10  2  0  0  0  0
  7 16  1  0  0  0  0
  8  9  2  0  0  0  0
  8 10  1  0  0  0  0
  8 11  1  0  0  0  0
  9 13  1  0  0  0  0
 11 12  2  0  0  0  0
 11 26  1  0  0  0  0
 12 14  1  0  0  0  0
 13 14  2  0  0  0  0
 13 27  1  0  0  0  0
 14 28  1  0  0  0  0
 15 17  2  0  0  0  0
 15 18  1  0  0  0  0
 16 31  1  0  0  0  0
 17 19  1  0  0  0  0
 17 32  1  0  0  0  0
 18 20  2  0  0  0  0
 18 33  1  0  0  0  0
 19 22  2  0  0  0  0
 20 22  1  0  0  0  0
 20 34  1  0  0  0  0
 21 23  1  0  0  0  0
 22 35  1  0  0  0  0
 23 24  2  0  0  0  0
 23 36  1  0  0  0  0
 24 25  1  0  0  0  0
 24 37  1  0  0  0  0
 25 38  1  0  0  0  0
 25 39  1  0  0  0  0
M  END
> <PUBCHEM_COMPOUND_CID>
10183143

> <PUBCHEM_CONFORMER_RMSD>
0.8

> <PUBCHEM_CONFORMER_DIVERSEORDER>
1
41
75
72
103
86
29
73
33
79
38
59
66
90
15
70
91
5
45
88
104
27
97
17
8
23
14
101
80
34
52
95
100
58
44
24
39
36
26
50
96
85
11
61
83
9
31
89
2
105
16
67
43
49
55
93
78
77
60
65
40
102
64
51
62
99
46
35
28
69
47
30
81
71
37
21
106
87
22
32
56
84
63
10
48
76
19
82
54
7
98
25
42
12
94
68
57
6
18
20
92
53
13
3
4
74

> <PUBCHEM_MMFF94_PARTIAL_CHARGES>
36
1 -0.11
10 0.41
11 -0.15
12 0.12
13 -0.15
14 -0.15
15 0.1
16 0.47
17 -0.15
18 -0.15
19 0.11
2 -0.23
20 -0.15
21 0.62
22 -0.15
23 -0.14
24 -0.29
25 0.37
26 0.15
27 0.15
28 0.15
29 0.4
3 -0.57
30 0.37
31 0.15
32 0.15
33 0.15
34 0.15
35 0.15
36 0.15
37 0.15
4 -0.6
5 -0.55
6 -0.62
7 -0.62
9 0.31

> <PUBCHEM_EFFECTIVE_ROTOR_COUNT>
6

> <PUBCHEM_PHARMACOPHORE_FEATURES>
10
1 1 hydrophobe
1 2 hydrophobe
1 3 acceptor
1 4 donor
1 5 donor
3 4 7 10 cation
3 6 7 16 cation
6 15 17 18 19 20 22 rings
6 6 7 8 9 10 16 rings
6 8 9 11 12 13 14 rings

> <PUBCHEM_HEAVY_ATOM_COUNT>
25

> <PUBCHEM_ATOM_DEF_STEREO_COUNT>
0

> <PUBCHEM_ATOM_UDEF_STEREO_COUNT>
0

> <PUBCHEM_BOND_DEF_STEREO_COUNT>
1

> <PUBCHEM_BOND_UDEF_STEREO_COUNT>
0

> <PUBCHEM_ISOTOPIC_ATOM_COUNT>
0

> <PUBCHEM_COMPONENT_COUNT>
1

> <PUBCHEM_CACTVS_TAUTO_COUNT>
6

> <PUBCHEM_CONFORMER_ID>
009B61E700000001

> <PUBCHEM_MMFF94_ENERGY>
82.8575

> <PUBCHEM_FEATURE_SELFOVERLAP>
50.916

> <PUBCHEM_SHAPE_FINGERPRINT>
10 15 12247678305832839479
10050765 1 18410292497755134185
10411042 1 18409727331344451744
10622 236 17771325755396176103
10693767 8 18337663209373536907
10951579 204 16951661676992021181
10981352 41 18060132176312859303
117089 54 18197507220577276902
11963148 33 18050844726405874575
12107183 9 18268719316670437465
12422481 6 17203604874348626711
13009979 54 18131078112645234297
13533116 47 18269555108504865793
13540713 4 18265311989358691881
13540713 5 18340786883211443865
1361 4 18123746724315829351
1361 87 17677063442340885651
13690498 29 18186802448778098517
13911852 28 18410287043546503483
13955234 65 18197495336154297153
14123256 34 18271814509846565111
14251740 57 18341889727405748115
14767858 380 18041859337289779830
14790565 3 17041199040042507720
14931854 50 17822292362143339123
15927050 60 18051977218907479894
17492 89 18410007754471179105
18222031 100 18342457002523131026
19246450 95 12245724280101296230
19841028 212 18268988860413011771
20028762 73 18273494585410994487
20165401 70 18269835492819313903
20775438 99 18046896353979813891
21279426 13 18188196659961643597
21315759 148 17274259419073319810
21344244 246 18335150830031553212
21585483 132 18126546029286036175
21682296 61 18411421726751520539
22950370 63 18265056842852369328
23522609 53 18048632298103808316
23559900 14 18408876330877977057
23569914 2 13842841048063804510
24893989 43 17985828357028870231
255183 451 18341338850389404004
270888 7 9223225252364094019
329604 57 18261398789463393710
335352 9 18265049125150326445
3421961 26 18410570708197315472
46194498 28 17386284414692905333
465052 167 18343586239234746286
5104073 3 18202566177108739009
5309563 4 18410290277103359867
5372103 7 15647913672438848918
5718773 13 18411414016979541911
57816373 69 17775282807222550423
6700243 42 17840330834545350644
70251023 43 18334858316123468673
7970288 3 18337386037405599683
9849439 229 10519694626889751963

> <PUBCHEM_SHAPE_MULTIPOLES>
500.58
19.12
4.41
1.27
29.01
1.93
0.61
-26.69
6.26
-0.78
0.19
-2.01
-1.07
-0.89

> <PUBCHEM_SHAPE_SELFOVERLAP>
1052.07

> <PUBCHEM_SHAPE_VOLUME>
288.7

> <PUBCHEM_COORDINATE_TYPE>
2
5
10

$$$$
