137357
  -OEChem-02172602573D

 40 41  0     1  0  0  0  0  0999 V2000
    1.1867    1.4538   -1.4355 O   0  0  0  0  0  0  0  0  0  0  0  0
    0.6955    0.5163    0.7838 C   0  0  1  0  0  0  0  0  0  0  0  0
    1.5068   -0.8098    0.6940 C   0  0  2  0  0  0  0  0  0  0  0  0
    1.4980    1.5519   -0.0457 C   0  0  1  0  0  0  0  0  0  0  0  0
    2.8388   -0.4312    0.0125 C   0  0  0  0  0  0  0  0  0  0  0  0
    2.9415    1.0845    0.1444 C   0  0  0  0  0  0  0  0  0  0  0  0
    0.8683   -2.0071    0.0443 C   0  0  0  0  0  0  0  0  0  0  0  0
   -0.7945    0.5748    0.5713 C   0  0  0  0  0  0  0  0  0  0  0  0
    1.3028    2.9988    0.3949 C   0  0  0  0  0  0  0  0  0  0  0  0
    0.1046   -1.7798   -1.2258 C   0  0  0  0  0  0  0  0  0  0  0  0
   -1.6525   -0.2032   -0.1137 C   0  0  0  0  0  0  0  0  0  0  0  0
   -1.3508   -1.4186   -0.9564 C   0  0  0  0  0  0  0  0  0  0  0  0
   -3.1263    0.1361   -0.0868 C   0  0  0  0  0  0  0  0  0  0  0  0
    0.9897   -3.2375    0.5694 C   0  0  0  0  0  0  0  0  0  0  0  0
   -3.6466    0.0584    1.3399 C   0  0  0  0  0  0  0  0  0  0  0  0
   -3.3620    1.5126   -0.6905 C   0  0  0  0  0  0  0  0  0  0  0  0
    0.8155    0.8165    1.8390 H   0  0  0  0  0  0  0  0  0  0  0  0
    1.7509   -1.0840    1.7321 H   0  0  0  0  0  0  0  0  0  0  0  0
    2.8479   -0.7119   -1.0478 H   0  0  0  0  0  0  0  0  0  0  0  0
    3.6911   -0.9308    0.4858 H   0  0  0  0  0  0  0  0  0  0  0  0
    3.3168    1.3473    1.1407 H   0  0  0  0  0  0  0  0  0  0  0  0
    3.6234    1.4937   -0.6081 H   0  0  0  0  0  0  0  0  0  0  0  0
   -1.2195    1.4290    1.1002 H   0  0  0  0  0  0  0  0  0  0  0  0
    1.5406    3.1362    1.4545 H   0  0  0  0  0  0  0  0  0  0  0  0
    1.9419    3.6688   -0.1915 H   0  0  0  0  0  0  0  0  0  0  0  0
    0.2720    3.3284    0.2258 H   0  0  0  0  0  0  0  0  0  0  0  0
    0.5869   -1.0121   -1.8392 H   0  0  0  0  0  0  0  0  0  0  0  0
    0.1261   -2.6891   -1.8415 H   0  0  0  0  0  0  0  0  0  0  0  0
   -1.8488   -2.2821   -0.4943 H   0  0  0  0  0  0  0  0  0  0  0  0
   -1.8262   -1.2784   -1.9369 H   0  0  0  0  0  0  0  0  0  0  0  0
    0.2775    1.7725   -1.5655 H   0  0  0  0  0  0  0  0  0  0  0  0
   -3.6884   -0.5925   -0.6851 H   0  0  0  0  0  0  0  0  0  0  0  0
    1.5484   -3.4107    1.4830 H   0  0  0  0  0  0  0  0  0  0  0  0
    0.5314   -4.0997    0.0962 H   0  0  0  0  0  0  0  0  0  0  0  0
   -3.2331    0.8364    1.9905 H   0  0  0  0  0  0  0  0  0  0  0  0
   -3.4256   -0.9153    1.7920 H   0  0  0  0  0  0  0  0  0  0  0  0
   -4.7358    0.1819    1.3500 H   0  0  0  0  0  0  0  0  0  0  0  0
   -2.9347    1.5829   -1.6974 H   0  0  0  0  0  0  0  0  0  0  0  0
   -2.9407    2.3233   -0.0865 H   0  0  0  0  0  0  0  0  0  0  0  0
   -4.4373    1.7061   -0.7781 H   0  0  0  0  0  0  0  0  0  0  0  0
  1  4  1  0  0  0  0
  1 31  1  0  0  0  0
  2  3  1  0  0  0  0
  2  4  1  0  0  0  0
  2  8  1  0  0  0  0
  2 17  1  0  0  0  0
  3  5  1  0  0  0  0
  3  7  1  0  0  0  0
  3 18  1  0  0  0  0
  4  6  1  0  0  0  0
  4  9  1  0  0  0  0
  5  6  1  0  0  0  0
  5 19  1  0  0  0  0
  5 20  1  0  0  0  0
  6 21  1  0  0  0  0
  6 22  1  0  0  0  0
  7 10  1  0  0  0  0
  7 14  2  0  0  0  0
  8 11  2  0  0  0  0
  8 23  1  0  0  0  0
  9 24  1  0  0  0  0
  9 25  1  0  0  0  0
  9 26  1  0  0  0  0
 10 12  1  0  0  0  0
 10 27  1  0  0  0  0
 10 28  1  0  0  0  0
 11 12  1  0  0  0  0
 11 13  1  0  0  0  0
 12 29  1  0  0  0  0
 12 30  1  0  0  0  0
 13 15  1  0  0  0  0
 13 16  1  0  0  0  0
 13 32  1  0  0  0  0
 14 33  1  0  0  0  0
 14 34  1  0  0  0  0
 15 35  1  0  0  0  0
 15 36  1  0  0  0  0
 15 37  1  0  0  0  0
 16 38  1  0  0  0  0
 16 39  1  0  0  0  0
 16 40  1  0  0  0  0
M  END
> <PUBCHEM_COMPOUND_CID>
137357

> <PUBCHEM_CONFORMER_RMSD>
0.6

> <PUBCHEM_CONFORMER_DIVERSEORDER>
1
7
3
10
12
9
6
4
11
5
2
8

> <PUBCHEM_MMFF94_PARTIAL_CHARGES>
15
1 -0.68
10 0.14
11 -0.28
12 0.14
13 0.14
14 -0.3
2 0.14
23 0.15
3 0.14
31 0.4
33 0.15
34 0.15
4 0.28
7 -0.28
8 -0.29

> <PUBCHEM_EFFECTIVE_ROTOR_COUNT>
2

> <PUBCHEM_PHARMACOPHORE_FEATURES>
5
1 1 acceptor
1 1 donor
3 13 15 16 hydrophobe
5 2 3 4 5 6 rings
7 2 3 7 8 10 11 12 rings

> <PUBCHEM_HEAVY_ATOM_COUNT>
16

> <PUBCHEM_ATOM_DEF_STEREO_COUNT>
3

> <PUBCHEM_ATOM_UDEF_STEREO_COUNT>
0

> <PUBCHEM_BOND_DEF_STEREO_COUNT>
0

> <PUBCHEM_BOND_UDEF_STEREO_COUNT>
0

> <PUBCHEM_ISOTOPIC_ATOM_COUNT>
0

> <PUBCHEM_COMPONENT_COUNT>
1

> <PUBCHEM_CACTVS_TAUTO_COUNT>
1

> <PUBCHEM_CONFORMER_ID>
0002188D00000001

> <PUBCHEM_MMFF94_ENERGY>
45.3023

> <PUBCHEM_FEATURE_SELFOVERLAP>
25.422

> <PUBCHEM_SHAPE_FINGERPRINT>
1 1 18410574006636843639
10382601 240 18126586534208721298
104564 63 17838902529610870996
10967382 1 18411976923344350208
10980938 120 18410289185933421947
116883 192 17405138530927509445
12654215 9 18264481793617378996
13140716 1 18341327915449907265
13380536 305 18339651130326915600
14181834 199 18269828714563485063
15219456 202 18261678065321786425
15375462 6 18335136493044908165
15775835 57 18341335607741810053
16945 1 18339070514935655043
18186145 218 18130232656542915112
19049666 15 17897728661218787617
20645476 183 18044107958331650990
20645477 70 18269830922582850383
21041028 32 18051419469784790803
21130352 189 17977655416737105871
21524375 3 18270119161653036623
22094290 62 18339920510591383144
22802520 49 17549557644090227558
22854114 111 18412266151132864001
2334 1 18053094313804194505
23419403 2 17465917395033421158
23557571 272 17240198829683125421
238 59 17977906238701147805
25 1 18334858303132713930
2748010 2 18266741474701197152
276578 36 18202013130880013467
305870 269 18336254730213181954
3060560 45 18411695491354255548
31174 14 18336562516745208123
430814 3 18338793536779283607
528862 383 18340485569453062907
589210 1 17834393806277310096
7364860 26 18339642243934046123
81228 2 17331395883817148755
8272917 22 18339647733445601963
9999458 23 18409455816481147199

> <PUBCHEM_SHAPE_MULTIPOLES>
323.4
4.79
3
1.13
3.9
0.58
-0.1
-1.64
0.56
-1.74
0.01
0.39
0.1
-0.11

> <PUBCHEM_SHAPE_SELFOVERLAP>
663.006

> <PUBCHEM_SHAPE_VOLUME>
188.3

> <PUBCHEM_COORDINATE_TYPE>
2
5
10

$$$$
