101037616
  -OEChem-02172602453D

 42 44  0     1  0  0  0  0  0999 V2000
   -1.3527   -0.7388    1.9152 O   0  0  0  0  0  0  0  0  0  0  0  0
    2.9000    2.0652    1.4115 O   0  0  0  0  0  0  0  0  0  0  0  0
    3.7199    2.4663   -0.8189 O   0  0  0  0  0  0  0  0  0  0  0  0
    1.9111   -3.3045    0.6293 O   0  0  0  0  0  0  0  0  0  0  0  0
   -0.1956   -2.4683    0.0577 N   0  0  0  0  0  0  0  0  0  0  0  0
   -0.9971   -1.3464   -0.4264 C   0  0  2  0  0  0  0  0  0  0  0  0
   -2.0088   -0.9321    0.6623 C   0  0  2  0  0  0  0  0  0  0  0  0
   -1.6361   -1.7169   -1.7640 C   0  0  0  0  0  0  0  0  0  0  0  0
   -2.8003    0.3037    0.2838 C   0  0  0  0  0  0  0  0  0  0  0  0
    1.1988   -2.3772    0.2223 C   0  0  0  0  0  0  0  0  0  0  0  0
   -0.9338   -3.6869    0.3588 C   0  0  0  0  0  0  0  0  0  0  0  0
    1.8635   -1.1205   -0.0850 C   0  0  0  0  0  0  0  0  0  0  0  0
   -2.3240    1.5693    0.6261 C   0  0  0  0  0  0  0  0  0  0  0  0
   -4.0053    0.1754   -0.4068 C   0  0  0  0  0  0  0  0  0  0  0  0
    2.0215   -0.1576    0.9147 C   0  0  0  0  0  0  0  0  0  0  0  0
    2.6584    1.0187    0.5758 C   0  0  0  0  0  0  0  0  0  0  0  0
    2.3417   -0.8864   -1.3863 C   0  0  0  0  0  0  0  0  0  0  0  0
    3.1265    1.2478   -0.6978 C   0  0  0  0  0  0  0  0  0  0  0  0
    2.9834    0.3134   -1.7029 C   0  0  0  0  0  0  0  0  0  0  0  0
   -3.0527    2.7065    0.2777 C   0  0  0  0  0  0  0  0  0  0  0  0
   -4.7340    1.3125   -0.7552 C   0  0  0  0  0  0  0  0  0  0  0  0
   -4.2577    2.5782   -0.4130 C   0  0  0  0  0  0  0  0  0  0  0  0
    3.5733    2.9786    0.5212 C   0  0  0  0  0  0  0  0  0  0  0  0
   -0.3583   -0.4818   -0.6200 H   0  0  0  0  0  0  0  0  0  0  0  0
   -2.7330   -1.7385    0.8310 H   0  0  0  0  0  0  0  0  0  0  0  0
   -2.0212   -0.8264   -2.2717 H   0  0  0  0  0  0  0  0  0  0  0  0
   -0.9026   -2.1765   -2.4361 H   0  0  0  0  0  0  0  0  0  0  0  0
   -2.4724   -2.4138   -1.6487 H   0  0  0  0  0  0  0  0  0  0  0  0
   -1.5872   -3.5320    1.2201 H   0  0  0  0  0  0  0  0  0  0  0  0
   -0.2384   -4.4909    0.6186 H   0  0  0  0  0  0  0  0  0  0  0  0
   -1.5119   -4.0185   -0.5058 H   0  0  0  0  0  0  0  0  0  0  0  0
   -1.3819    1.6932    1.1533 H   0  0  0  0  0  0  0  0  0  0  0  0
   -4.3906   -0.8040   -0.6772 H   0  0  0  0  0  0  0  0  0  0  0  0
   -2.0124   -0.4210    2.5553 H   0  0  0  0  0  0  0  0  0  0  0  0
    1.6584   -0.3239    1.9233 H   0  0  0  0  0  0  0  0  0  0  0  0
    2.2145   -1.6400   -2.1600 H   0  0  0  0  0  0  0  0  0  0  0  0
    3.3530    0.4980   -2.7051 H   0  0  0  0  0  0  0  0  0  0  0  0
   -2.6805    3.6921    0.5415 H   0  0  0  0  0  0  0  0  0  0  0  0
   -5.6726    1.2127   -1.2925 H   0  0  0  0  0  0  0  0  0  0  0  0
   -4.8248    3.4636   -0.6848 H   0  0  0  0  0  0  0  0  0  0  0  0
    4.5690    3.1932    0.9259 H   0  0  0  0  0  0  0  0  0  0  0  0
    3.0016    3.9128    0.4791 H   0  0  0  0  0  0  0  0  0  0  0  0
  1  7  1  0  0  0  0
  1 34  1  0  0  0  0
  2 16  1  0  0  0  0
  2 23  1  0  0  0  0
  3 18  1  0  0  0  0
  3 23  1  0  0  0  0
  4 10  2  0  0  0  0
  5  6  1  0  0  0  0
  5 10  1  0  0  0  0
  5 11  1  0  0  0  0
  6  7  1  0  0  0  0
  6  8  1  0  0  0  0
  6 24  1  0  0  0  0
  7  9  1  0  0  0  0
  7 25  1  0  0  0  0
  8 26  1  0  0  0  0
  8 27  1  0  0  0  0
  8 28  1  0  0  0  0
  9 13  2  0  0  0  0
  9 14  1  0  0  0  0
 10 12  1  0  0  0  0
 11 29  1  0  0  0  0
 11 30  1  0  0  0  0
 11 31  1  0  0  0  0
 12 15  2  0  0  0  0
 12 17  1  0  0  0  0
 13 20  1  0  0  0  0
 13 32  1  0  0  0  0
 14 21  2  0  0  0  0
 14 33  1  0  0  0  0
 15 16  1  0  0  0  0
 15 35  1  0  0  0  0
 16 18  2  0  0  0  0
 17 19  2  0  0  0  0
 17 36  1  0  0  0  0
 18 19  1  0  0  0  0
 19 37  1  0  0  0  0
 20 22  2  0  0  0  0
 20 38  1  0  0  0  0
 21 22  1  0  0  0  0
 21 39  1  0  0  0  0
 22 40  1  0  0  0  0
 23 41  1  0  0  0  0
 23 42  1  0  0  0  0
M  END
> <PUBCHEM_COMPOUND_CID>
101037616

> <PUBCHEM_CONFORMER_RMSD>
0.8

> <PUBCHEM_CONFORMER_DIVERSEORDER>
5
13
58
25
76
52
15
65
66
34
1
23
69
8
29
77
26
55
18
59
70
57
3
39
19
21
31
37
27
54
78
63
43
67
41
48
38
74
40
61
56
46
6
14
36
75
30
4
64
42
24
72
28
73
35
7
45
60
50
62
53
71
17
47
11
68
33
16
22
49
51
20
12
32
10
44
2
9

> <PUBCHEM_MMFF94_PARTIAL_CHARGES>
31
1 -0.68
10 0.54
11 0.3
12 0.09
13 -0.15
14 -0.15
15 -0.15
16 0.08
17 -0.15
18 0.08
19 -0.15
2 -0.36
20 -0.15
21 -0.15
22 -0.15
23 0.56
3 -0.36
32 0.15
33 0.15
34 0.4
35 0.15
36 0.15
37 0.15
38 0.15
39 0.15
4 -0.57
40 0.15
5 -0.66
6 0.3
7 0.42
9 -0.14

> <PUBCHEM_EFFECTIVE_ROTOR_COUNT>
5.6

> <PUBCHEM_PHARMACOPHORE_FEATURES>
8
1 1 acceptor
1 1 donor
1 2 acceptor
1 3 acceptor
1 4 acceptor
5 2 3 16 18 23 rings
6 12 15 16 17 18 19 rings
6 9 13 14 20 21 22 rings

> <PUBCHEM_HEAVY_ATOM_COUNT>
23

> <PUBCHEM_ATOM_DEF_STEREO_COUNT>
2

> <PUBCHEM_ATOM_UDEF_STEREO_COUNT>
0

> <PUBCHEM_BOND_DEF_STEREO_COUNT>
0

> <PUBCHEM_BOND_UDEF_STEREO_COUNT>
0

> <PUBCHEM_ISOTOPIC_ATOM_COUNT>
0

> <PUBCHEM_COMPONENT_COUNT>
1

> <PUBCHEM_CACTVS_TAUTO_COUNT>
1

> <PUBCHEM_CONFORMER_ID>
0605B63000000005

> <PUBCHEM_MMFF94_ENERGY>
71.8593

> <PUBCHEM_FEATURE_SELFOVERLAP>
40.753

> <PUBCHEM_SHAPE_FINGERPRINT>
10165383 225 17976300994389176922
10498660 4 18339926016839813357
10670039 82 17545616998981447332
10764073 3 17483363389524530026
10871710 139 18051410970287293525
11370993 70 18410852178847565837
11640471 11 18115854360313881622
12173636 292 18264771137000887583
12363563 72 10519989253014287165
12403259 327 15140686899087383637
12633257 1 15719392875329909228
12788726 201 17974844274779880091
128993 33 18341626896676587556
13122387 1 14807412374698611381
13134695 92 17831574275906141579
13294875 104 18411699851379401338
138480 1 17906168451790140034
13965767 371 17968362503425739284
14123255 52 18409449214831686924
14466204 15 18048590426699059874
14468879 13 18261117404369832009
14848178 96 18336265639715619741
14955137 171 18121214273478724322
15422964 175 8934993742177388307
15848702 68 18193270793541933716
17134986 127 18411140208007336054
18681886 176 18053652586771125211
18981168 100 18335714882947186454
192875 21 17910949150107435361
19930381 70 18338510846896988609
20567600 299 17834948672944596557
21133410 221 16837943818589821216
21731516 1 10447661230787584398
21860390 5 17837208173760796399
21864079 5 18409165545168847052
22393880 68 18342460296673610517
22749437 52 18408884014574242037
23227448 37 18197217172918533437
23559900 14 18049151182304124435
238 59 18200038334902903761
26353 1 16550840458951149463
345986 75 16161292890618494995
43658 37 18411133628407497861
469060 322 17831877002655294883
474 4 18116435847709870047
495365 180 18336539413688867677
5048184 11 18410574010990346525
5262128 65 17273433685096996564
56633871 153 8141818213496158949
5939293 188 17979635636914986230
6328613 192 18334018328828431156
633830 44 18129948875717308413
7808743 9 18119256296693486948
84936 182 18339924805474153299
9981440 41 18335974384697001786

> <PUBCHEM_SHAPE_MULTIPOLES>
444.87
8.02
4.15
1.38
4.24
1.11
-0.19
-7.8
-1.46
-1.04
0.61
-0.48
0.12
0.19

> <PUBCHEM_SHAPE_SELFOVERLAP>
962.202

> <PUBCHEM_SHAPE_VOLUME>
244.2

> <PUBCHEM_COORDINATE_TYPE>
2
5
10

$$$$
