9692361
  -OEChem-02172602283D

 38 38  0     1  0  0  0  0  0999 V2000
   -0.2565   -1.3949   -1.6768 S   0  0  0  0  0  0  0  0  0  0  0  0
   -2.9389    1.8987   -0.7241 S   0  0  0  0  0  0  0  0  0  0  0  0
    0.6923    0.3114    0.1483 O   0  0  0  0  0  0  0  0  0  0  0  0
    3.9404    1.3465    1.4794 O   0  0  0  0  0  0  0  0  0  0  0  0
    4.5905    0.2316   -1.1501 O   0  0  0  0  0  0  0  0  0  0  0  0
    2.8192   -1.9462   -1.8143 O   0  0  0  0  0  0  0  0  0  0  0  0
   -0.1706    1.5701    2.4313 O   0  0  0  0  0  0  0  0  0  0  0  0
   -1.9806    0.6039   -1.0322 O   0  0  0  0  0  0  0  0  0  0  0  0
   -2.8122    2.1114    0.7172 O   0  5  0  0  0  0  0  0  0  0  0  0
   -2.3495    2.9599   -1.5388 O   0  0  0  0  0  0  0  0  0  0  0  0
   -4.2699    1.4793   -1.1616 O   0  0  0  0  0  0  0  0  0  0  0  0
   -2.3896   -0.5313   -0.3240 N   0  0  0  0  0  0  0  0  0  0  0  0
    2.9863    1.0314    0.4690 C   0  0  1  0  0  0  0  0  0  0  0  0
    3.4793   -0.1658   -0.3446 C   0  0  1  0  0  0  0  0  0  0  0  0
    1.6438    0.7156    1.1336 C   0  0  1  0  0  0  0  0  0  0  0  0
    2.3862   -0.6967   -1.2775 C   0  0  2  0  0  0  0  0  0  0  0  0
    1.0689   -0.8923   -0.5200 C   0  0  2  0  0  0  0  0  0  0  0  0
    1.0700    1.9322    1.8530 C   0  0  0  0  0  0  0  0  0  0  0  0
   -1.6245   -1.5469   -0.5763 C   0  0  0  0  0  0  0  0  0  0  0  0
   -1.7752   -2.9362    0.0166 C   0  0  0  0  0  0  0  0  0  0  0  0
   -1.5926   -2.8511    1.5011 C   0  0  0  0  0  0  0  0  0  0  0  0
   -2.5168   -3.2304    2.3910 C   0  0  0  0  0  0  0  0  0  0  0  0
    2.8928    1.9067   -0.1863 H   0  0  0  0  0  0  0  0  0  0  0  0
    3.8459   -0.9568    0.3215 H   0  0  0  0  0  0  0  0  0  0  0  0
    1.7539   -0.0951    1.8668 H   0  0  0  0  0  0  0  0  0  0  0  0
    2.2641    0.0055   -2.1128 H   0  0  0  0  0  0  0  0  0  0  0  0
    1.1693   -1.7021    0.2127 H   0  0  0  0  0  0  0  0  0  0  0  0
    0.8741    2.7476    1.1492 H   0  0  0  0  0  0  0  0  0  0  0  0
    1.7338    2.2986    2.6418 H   0  0  0  0  0  0  0  0  0  0  0  0
    4.8727   -0.5464   -1.6611 H   0  0  0  0  0  0  0  0  0  0  0  0
    4.7892    1.5142    1.0354 H   0  0  0  0  0  0  0  0  0  0  0  0
    2.1084   -2.2760   -2.3902 H   0  0  0  0  0  0  0  0  0  0  0  0
   -0.0011    0.8624    3.0764 H   0  0  0  0  0  0  0  0  0  0  0  0
   -2.7760   -3.3005   -0.2430 H   0  0  0  0  0  0  0  0  0  0  0  0
   -1.0477   -3.6404   -0.3995 H   0  0  0  0  0  0  0  0  0  0  0  0
   -0.6421   -2.4750    1.8714 H   0  0  0  0  0  0  0  0  0  0  0  0
   -2.3197   -3.1520    3.4546 H   0  0  0  0  0  0  0  0  0  0  0  0
   -3.4785   -3.6215    2.0784 H   0  0  0  0  0  0  0  0  0  0  0  0
  1 17  1  0  0  0  0
  1 19  1  0  0  0  0
  2  8  1  0  0  0  0
  2  9  1  0  0  0  0
  2 10  2  0  0  0  0
  2 11  2  0  0  0  0
  3 15  1  0  0  0  0
  3 17  1  0  0  0  0
  4 13  1  0  0  0  0
  4 31  1  0  0  0  0
  5 14  1  0  0  0  0
  5 30  1  0  0  0  0
  6 16  1  0  0  0  0
  6 32  1  0  0  0  0
  7 18  1  0  0  0  0
  7 33  1  0  0  0  0
  8 12  1  0  0  0  0
 12 19  2  0  0  0  0
 13 14  1  0  0  0  0
 13 15  1  0  0  0  0
 13 23  1  0  0  0  0
 14 16  1  0  0  0  0
 14 24  1  0  0  0  0
 15 18  1  0  0  0  0
 15 25  1  0  0  0  0
 16 17  1  0  0  0  0
 16 26  1  0  0  0  0
 17 27  1  0  0  0  0
 18 28  1  0  0  0  0
 18 29  1  0  0  0  0
 19 20  1  0  0  0  0
 20 21  1  0  0  0  0
 20 34  1  0  0  0  0
 20 35  1  0  0  0  0
 21 22  2  0  0  0  0
 21 36  1  0  0  0  0
 22 37  1  0  0  0  0
 22 38  1  0  0  0  0
M  CHG  1   9  -1
M  END
> <PUBCHEM_COMPOUND_CID>
9692361

> <PUBCHEM_CONFORMER_RMSD>
0.8

> <PUBCHEM_CONFORMER_DIVERSEORDER>
1
63
28
31
60
125
22
121
61
129
133
101
32
48
49
9
33
68
56
115
16
19
92
12
57
75
128
87
27
90
47
70
52
123
86
69
18
88
89
4
74
83
50
111
120
39
107
34
100
46
95
94
98
85
53
55
51
108
26
82
67
41
132
7
102
77
93
109
79
114
119
73
104
10
2
84
58
126
38
29
59
23
130
5
6
43
76
91
81
45
62
42
117
110
40
131
78
20
72
124
66
112
64
36
116
80
96
24
99
118
106
21
8
97
13
134
11
30
105
35
15
37
54
103
44
3
113
65
25
122
14
127
17
71

> <PUBCHEM_MMFF94_PARTIAL_CHARGES>
29
1 -0.37
10 -0.82
11 -0.82
12 -0.51
13 0.28
14 0.28
15 0.28
16 0.28
17 0.51
18 0.28
19 0.53
2 1.63
20 0.2
21 -0.29
22 -0.3
3 -0.56
30 0.4
31 0.4
32 0.4
33 0.4
36 0.15
37 0.15
38 0.15
4 -0.68
5 -0.68
6 -0.68
7 -0.68
8 -0.12
9 -0.82

> <PUBCHEM_EFFECTIVE_ROTOR_COUNT>
8.2

> <PUBCHEM_PHARMACOPHORE_FEATURES>
16
1 10 acceptor
1 11 acceptor
1 12 acceptor
1 22 hydrophobe
1 3 acceptor
1 4 acceptor
1 4 donor
1 5 acceptor
1 5 donor
1 6 acceptor
1 6 donor
1 7 acceptor
1 7 donor
1 9 acceptor
4 2 9 10 11 anion
6 3 13 14 15 16 17 rings

> <PUBCHEM_HEAVY_ATOM_COUNT>
22

> <PUBCHEM_ATOM_DEF_STEREO_COUNT>
5

> <PUBCHEM_ATOM_UDEF_STEREO_COUNT>
0

> <PUBCHEM_BOND_DEF_STEREO_COUNT>
1

> <PUBCHEM_BOND_UDEF_STEREO_COUNT>
0

> <PUBCHEM_ISOTOPIC_ATOM_COUNT>
0

> <PUBCHEM_COMPONENT_COUNT>
1

> <PUBCHEM_CACTVS_TAUTO_COUNT>
1

> <PUBCHEM_CONFORMER_ID>
0093E4C900000001

> <PUBCHEM_MMFF94_ENERGY>
50.8347

> <PUBCHEM_FEATURE_SELFOVERLAP>
81.295

> <PUBCHEM_SHAPE_FINGERPRINT>
10366900 7 18339640173623198862
11244481 83 16382263404968555259
12596599 1 16370989854667110994
12788726 201 17243325943130725883
13294875 104 17762305073578747647
14178342 30 17967528004255010682
14251757 17 17987794099271589933
18219364 16 17631164384635192330
19049666 15 18413674603826719110
20600515 1 17389641288407035103
21524375 3 18266449902699752023
22182313 1 17917152814319402696
23493267 7 18408323281071540454
23526113 38 18129943364799455431
23557571 272 18335146444020065582
23559900 14 18060135411208592830
238 59 17200477953336738868
25 1 18058163917191227565
2748010 2 17846494894056369248
2803657 2 16326254746411011933
35225 105 17822002130059906947
3524813 1 18272081695451127973
6049 1 18128542746104920558
81228 2 18263078976300872695
9981440 41 17915149482120649490

> <PUBCHEM_SHAPE_MULTIPOLES>
402.64
6.66
3.63
2.22
3.73
0.6
-0.91
-1.52
0.8
-4.6
-0.87
-0.08
0.28
3.12

> <PUBCHEM_SHAPE_SELFOVERLAP>
781.668

> <PUBCHEM_SHAPE_VOLUME>
243.3

> <PUBCHEM_COORDINATE_TYPE>
2
5
10

$$$$
