3085033
  -OEChem-02172602553D

 29 31  0     0  0  0  0  0  0999 V2000
   -0.5043    2.4090   -0.0004 O   0  0  0  0  0  0  0  0  0  0  0  0
    0.0265   -2.9084    0.0018 O   0  0  0  0  0  0  0  0  0  0  0  0
   -3.0539    2.2452    0.0004 O   0  0  0  0  0  0  0  0  0  0  0  0
    4.7495   -1.1423   -0.0017 O   0  0  0  0  0  0  0  0  0  0  0  0
    0.9640    0.5706    0.0010 C   0  0  0  0  0  0  0  0  0  0  0  0
    1.1006   -0.8192    0.0007 C   0  0  0  0  0  0  0  0  0  0  0  0
   -1.5699    0.3216    0.0007 C   0  0  0  0  0  0  0  0  0  0  0  0
   -1.4333   -1.0681    0.0006 C   0  0  0  0  0  0  0  0  0  0  0  0
   -0.3763    1.1918    0.0008 C   0  0  0  0  0  0  0  0  0  0  0  0
    2.1035    1.3841    0.0005 C   0  0  0  0  0  0  0  0  0  0  0  0
   -0.0930   -1.6893    0.0014 C   0  0  0  0  0  0  0  0  0  0  0  0
    2.3764   -1.3955   -0.0002 C   0  0  0  0  0  0  0  0  0  0  0  0
   -2.8458    0.8977   -0.0002 C   0  0  0  0  0  0  0  0  0  0  0  0
    3.3732    0.8058   -0.0007 C   0  0  0  0  0  0  0  0  0  0  0  0
   -2.5727   -1.8817   -0.0005 C   0  0  0  0  0  0  0  0  0  0  0  0
    3.5093   -0.5810   -0.0011 C   0  0  0  0  0  0  0  0  0  0  0  0
    2.0671    2.8797    0.0004 C   0  0  0  0  0  0  0  0  0  0  0  0
   -3.9786    0.0833   -0.0015 C   0  0  0  0  0  0  0  0  0  0  0  0
   -3.8424   -1.3035   -0.0018 C   0  0  0  0  0  0  0  0  0  0  0  0
    2.4957   -2.4761   -0.0004 H   0  0  0  0  0  0  0  0  0  0  0  0
    4.2691    1.4223   -0.0013 H   0  0  0  0  0  0  0  0  0  0  0  0
   -2.4932   -2.9655   -0.0006 H   0  0  0  0  0  0  0  0  0  0  0  0
    3.0746    3.3128    0.0011 H   0  0  0  0  0  0  0  0  0  0  0  0
    1.5759    3.2598   -0.9012 H   0  0  0  0  0  0  0  0  0  0  0  0
    1.5749    3.2599    0.9015 H   0  0  0  0  0  0  0  0  0  0  0  0
   -4.9725    0.5231   -0.0022 H   0  0  0  0  0  0  0  0  0  0  0  0
   -4.7258   -1.9354   -0.0028 H   0  0  0  0  0  0  0  0  0  0  0  0
   -2.2120    2.7241    0.0062 H   0  0  0  0  0  0  0  0  0  0  0  0
    4.6583   -2.1106   -0.0018 H   0  0  0  0  0  0  0  0  0  0  0  0
  1  9  2  0  0  0  0
  2 11  2  0  0  0  0
  3 13  1  0  0  0  0
  3 28  1  0  0  0  0
  4 16  1  0  0  0  0
  4 29  1  0  0  0  0
  5  6  2  0  0  0  0
  5  9  1  0  0  0  0
  5 10  1  0  0  0  0
  6 11  1  0  0  0  0
  6 12  1  0  0  0  0
  7  8  2  0  0  0  0
  7  9  1  0  0  0  0
  7 13  1  0  0  0  0
  8 11  1  0  0  0  0
  8 15  1  0  0  0  0
 10 14  2  0  0  0  0
 10 17  1  0  0  0  0
 12 16  2  0  0  0  0
 12 20  1  0  0  0  0
 13 18  2  0  0  0  0
 14 16  1  0  0  0  0
 14 21  1  0  0  0  0
 15 19  2  0  0  0  0
 15 22  1  0  0  0  0
 17 23  1  0  0  0  0
 17 24  1  0  0  0  0
 17 25  1  0  0  0  0
 18 19  1  0  0  0  0
 18 26  1  0  0  0  0
 19 27  1  0  0  0  0
M  END
> <PUBCHEM_COMPOUND_CID>
3085033

> <PUBCHEM_CONFORMER_RMSD>
0.4

> <PUBCHEM_CONFORMER_DIVERSEORDER>
1

> <PUBCHEM_MMFF94_PARTIAL_CHARGES>
26
1 -0.57
10 -0.14
11 0.4
12 -0.15
13 0.08
14 -0.15
15 -0.15
16 0.08
17 0.14
18 -0.15
19 -0.15
2 -0.57
20 0.15
21 0.15
22 0.15
26 0.15
27 0.15
28 0.45
29 0.45
3 -0.53
4 -0.53
5 0.09
6 0.09
7 0.09
8 0.09
9 0.4

> <PUBCHEM_EFFECTIVE_ROTOR_COUNT>
0

> <PUBCHEM_PHARMACOPHORE_FEATURES>
7
1 1 acceptor
1 2 acceptor
1 3 donor
1 4 donor
6 5 6 10 12 14 16 rings
6 5 6 7 8 9 11 rings
6 7 8 13 15 18 19 rings

> <PUBCHEM_HEAVY_ATOM_COUNT>
19

> <PUBCHEM_ATOM_DEF_STEREO_COUNT>
0

> <PUBCHEM_ATOM_UDEF_STEREO_COUNT>
0

> <PUBCHEM_BOND_DEF_STEREO_COUNT>
0

> <PUBCHEM_BOND_UDEF_STEREO_COUNT>
0

> <PUBCHEM_ISOTOPIC_ATOM_COUNT>
0

> <PUBCHEM_COMPONENT_COUNT>
1

> <PUBCHEM_CACTVS_TAUTO_COUNT>
57

> <PUBCHEM_CONFORMER_ID>
002F12E900000001

> <PUBCHEM_MMFF94_ENERGY>
62.618

> <PUBCHEM_FEATURE_SELFOVERLAP>
35.562

> <PUBCHEM_SHAPE_FINGERPRINT>
10062212 137 18410284783687246419
10608611 8 18410853299875909801
10616163 171 18411420579251453967
10967382 1 18266740181879150178
11132069 177 18412257341769688170
11471102 20 18410288146641033158
11680986 33 18191590971634282602
12403259 226 18410569621649639009
12403260 363 18411410739444169751
13140716 1 18411143541007446553
13221675 6 18410009948582087322
14790565 3 17907593432072752528
15196674 1 18410574010926536164
15442244 35 18410574002579311648
15536298 74 18342457088369813752
16945 1 18266458694223200993
17492 89 18267021841709201590
17804303 29 18410860957733793068
18186145 218 18272097101303405673
193761 8 17906171011574992962
19591789 44 18410293648441729475
200 152 18059567019072769183
20028762 73 18129659828598016279
20510252 161 18271809055142978497
21267235 1 18410583885120094931
21501502 16 18339364174713478893
221490 88 18263933292113321986
2334 1 18338517555218556421
23366157 5 17969219109284204916
23402539 116 18342166731580271638
23463225 33 18409448106719445012
23559900 14 18342171202620238072
238 59 17322629074182951413
2748010 2 18410291445165308493
335352 9 18338516309593703453
350125 39 18410016554474059537
5104073 3 18411138056128325912
69090 78 18342735260337579119
7364860 26 18269555103983343632
8809292 202 18333735736089117483
9709674 26 18338801242072120318
9981440 41 17471007455450255864

> <PUBCHEM_SHAPE_MULTIPOLES>
367.53
6.94
2.85
0.6
0.5
0.63
0
-0.8
-0.01
0.23
0
-0.01
0
0

> <PUBCHEM_SHAPE_SELFOVERLAP>
834.233

> <PUBCHEM_SHAPE_VOLUME>
191.4

> <PUBCHEM_COORDINATE_TYPE>
2
5
10

$$$$
