637234
  -OEChem-02172602223D

 81 85  0     1  0  0  0  0  0999 V2000
   -4.6168   -2.1572    1.8907 O   0  0  0  0  0  0  0  0  0  0  0  0
   -5.2185    1.9740   -0.4667 O   0  0  0  0  0  0  0  0  0  0  0  0
   -6.1637    0.0655   -1.2790 O   0  0  0  0  0  0  0  0  0  0  0  0
   -0.2822    0.9516   -0.0742 C   0  0  2  0  0  0  0  0  0  0  0  0
   -0.8852   -0.4710   -0.3984 C   0  0  1  0  0  0  0  0  0  0  0  0
   -2.4602   -0.5777   -0.6239 C   0  0  2  0  0  0  0  0  0  0  0  0
    1.2390    0.7476    0.5002 C   0  0  1  0  0  0  0  0  0  0  0  0
   -3.1615    0.1711    0.5659 C   0  0  1  0  0  0  0  0  0  0  0  0
   -1.1831    1.6834    0.9587 C   0  0  0  0  0  0  0  0  0  0  0  0
    2.0495   -0.1735   -0.4305 C   0  0  0  0  0  0  0  0  0  0  0  0
    3.5802   -0.1479   -0.4117 C   0  0  1  0  0  0  0  0  0  0  0  0
   -2.6821    1.6330    0.6527 C   0  0  0  0  0  0  0  0  0  0  0  0
    4.2197    1.2524   -0.1605 C   0  0  1  0  0  0  0  0  0  0  0  0
    1.9516    2.1247    0.6532 C   0  0  0  0  0  0  0  0  0  0  0  0
   -0.0351   -1.1819   -1.4709 C   0  0  0  0  0  0  0  0  0  0  0  0
   -4.7094   -0.0330    0.6608 C   0  0  1  0  0  0  0  0  0  0  0  0
   -2.8698   -2.0827   -0.5500 C   0  0  0  0  0  0  0  0  0  0  0  0
    3.4515    2.0313    0.9310 C   0  0  0  0  0  0  0  0  0  0  0  0
   -0.2338    1.8409   -1.3543 C   0  0  0  0  0  0  0  0  0  0  0  0
    1.4432   -1.0130   -1.2939 C   0  0  0  0  0  0  0  0  0  0  0  0
   -2.9113   -0.0543   -2.0107 C   0  0  0  0  0  0  0  0  0  0  0  0
    1.2322    0.0770    1.9069 C   0  0  0  0  0  0  0  0  0  0  0  0
   -5.0450   -1.5495    0.6680 C   0  0  1  0  0  0  0  0  0  0  0  0
    4.1824   -1.2073    0.5339 C   0  0  0  0  0  0  0  0  0  0  0  0
   -4.3807   -2.3229   -0.4701 C   0  0  0  0  0  0  0  0  0  0  0  0
    5.7019    1.1179    0.3036 C   0  0  0  0  0  0  0  0  0  0  0  0
    5.6955   -1.4332    0.2606 C   0  0  0  0  0  0  0  0  0  0  0  0
    6.3760   -0.1373   -0.2491 C   0  0  0  0  0  0  0  0  0  0  0  0
    4.1955    2.0554   -1.4849 C   0  0  0  0  0  0  0  0  0  0  0  0
   -5.2789    0.6221    1.9398 C   0  0  0  0  0  0  0  0  0  0  0  0
   -5.4511    0.6387   -0.4685 C   0  0  0  0  0  0  0  0  0  0  0  0
    5.8822   -2.5411   -0.7938 C   0  0  0  0  0  0  0  0  0  0  0  0
    6.3682   -1.9033    1.5650 C   0  0  0  0  0  0  0  0  0  0  0  0
   -0.7338   -1.0606    0.5150 H   0  0  0  0  0  0  0  0  0  0  0  0
   -2.7738   -0.3061    1.4814 H   0  0  0  0  0  0  0  0  0  0  0  0
   -0.8775    2.7322    1.0577 H   0  0  0  0  0  0  0  0  0  0  0  0
   -1.0652    1.2430    1.9525 H   0  0  0  0  0  0  0  0  0  0  0  0
    3.8947   -0.4483   -1.4236 H   0  0  0  0  0  0  0  0  0  0  0  0
   -3.1879    2.1661    1.4631 H   0  0  0  0  0  0  0  0  0  0  0  0
   -2.8732    2.1974   -0.2622 H   0  0  0  0  0  0  0  0  0  0  0  0
    1.4854    2.6947    1.4668 H   0  0  0  0  0  0  0  0  0  0  0  0
    1.8336    2.7399   -0.2412 H   0  0  0  0  0  0  0  0  0  0  0  0
   -0.2737   -0.8245   -2.4762 H   0  0  0  0  0  0  0  0  0  0  0  0
   -0.2498   -2.2562   -1.4557 H   0  0  0  0  0  0  0  0  0  0  0  0
   -2.4037   -2.5484    0.3283 H   0  0  0  0  0  0  0  0  0  0  0  0
   -2.4854   -2.6241   -1.4231 H   0  0  0  0  0  0  0  0  0  0  0  0
    3.8571    3.0484    1.0140 H   0  0  0  0  0  0  0  0  0  0  0  0
    3.6107    1.5715    1.9132 H   0  0  0  0  0  0  0  0  0  0  0  0
   -0.0408    2.8908   -1.1085 H   0  0  0  0  0  0  0  0  0  0  0  0
    0.5395    1.5242   -2.0600 H   0  0  0  0  0  0  0  0  0  0  0  0
   -1.1719    1.8502   -1.9019 H   0  0  0  0  0  0  0  0  0  0  0  0
    2.0536   -1.6383   -1.9426 H   0  0  0  0  0  0  0  0  0  0  0  0
   -2.2411   -0.3733   -2.8117 H   0  0  0  0  0  0  0  0  0  0  0  0
   -3.8910   -0.4305   -2.3090 H   0  0  0  0  0  0  0  0  0  0  0  0
   -2.9899    1.0315   -2.0574 H   0  0  0  0  0  0  0  0  0  0  0  0
    0.7209   -0.8889    1.9177 H   0  0  0  0  0  0  0  0  0  0  0  0
    2.2388   -0.1164    2.2821 H   0  0  0  0  0  0  0  0  0  0  0  0
    0.7682    0.7161    2.6638 H   0  0  0  0  0  0  0  0  0  0  0  0
   -6.1310   -1.6977    0.6136 H   0  0  0  0  0  0  0  0  0  0  0  0
    4.0532   -0.8821    1.5718 H   0  0  0  0  0  0  0  0  0  0  0  0
    3.6418   -2.1588    0.4484 H   0  0  0  0  0  0  0  0  0  0  0  0
   -4.8555   -2.0881   -1.4266 H   0  0  0  0  0  0  0  0  0  0  0  0
   -4.5379   -3.3992   -0.3205 H   0  0  0  0  0  0  0  0  0  0  0  0
    5.7610    1.0837    1.3991 H   0  0  0  0  0  0  0  0  0  0  0  0
    6.2761    2.0035    0.0041 H   0  0  0  0  0  0  0  0  0  0  0  0
    6.3493   -0.0948   -1.3454 H   0  0  0  0  0  0  0  0  0  0  0  0
    7.4387   -0.1318    0.0234 H   0  0  0  0  0  0  0  0  0  0  0  0
    4.8421    1.5931   -2.2392 H   0  0  0  0  0  0  0  0  0  0  0  0
    3.1913    2.1123   -1.9163 H   0  0  0  0  0  0  0  0  0  0  0  0
    4.5513    3.0805   -1.3318 H   0  0  0  0  0  0  0  0  0  0  0  0
   -5.2306    1.7154    1.9408 H   0  0  0  0  0  0  0  0  0  0  0  0
   -6.3376    0.3631    2.0673 H   0  0  0  0  0  0  0  0  0  0  0  0
   -4.7471    0.2743    2.8326 H   0  0  0  0  0  0  0  0  0  0  0  0
    5.3941   -2.2814   -1.7393 H   0  0  0  0  0  0  0  0  0  0  0  0
    6.9445   -2.7102   -1.0033 H   0  0  0  0  0  0  0  0  0  0  0  0
    5.4558   -3.4908   -0.4514 H   0  0  0  0  0  0  0  0  0  0  0  0
    7.4298   -2.1248    1.4071 H   0  0  0  0  0  0  0  0  0  0  0  0
    6.3024   -1.1386    2.3467 H   0  0  0  0  0  0  0  0  0  0  0  0
    5.8922   -2.8132    1.9479 H   0  0  0  0  0  0  0  0  0  0  0  0
   -4.9177   -3.0818    1.8830 H   0  0  0  0  0  0  0  0  0  0  0  0
   -5.6890    2.4288   -1.1973 H   0  0  0  0  0  0  0  0  0  0  0  0
  1 23  1  0  0  0  0
  1 80  1  0  0  0  0
  2 31  1  0  0  0  0
  2 81  1  0  0  0  0
  3 31  2  0  0  0  0
  4  5  1  0  0  0  0
  4  7  1  0  0  0  0
  4  9  1  0  0  0  0
  4 19  1  0  0  0  0
  5  6  1  0  0  0  0
  5 15  1  0  0  0  0
  5 34  1  0  0  0  0
  6  8  1  0  0  0  0
  6 17  1  0  0  0  0
  6 21  1  0  0  0  0
  7 10  1  0  0  0  0
  7 14  1  0  0  0  0
  7 22  1  0  0  0  0
  8 12  1  0  0  0  0
  8 16  1  0  0  0  0
  8 35  1  0  0  0  0
  9 12  1  0  0  0  0
  9 36  1  0  0  0  0
  9 37  1  0  0  0  0
 10 11  1  0  0  0  0
 10 20  2  0  0  0  0
 11 13  1  0  0  0  0
 11 24  1  0  0  0  0
 11 38  1  0  0  0  0
 12 39  1  0  0  0  0
 12 40  1  0  0  0  0
 13 18  1  0  0  0  0
 13 26  1  0  0  0  0
 13 29  1  0  0  0  0
 14 18  1  0  0  0  0
 14 41  1  0  0  0  0
 14 42  1  0  0  0  0
 15 20  1  0  0  0  0
 15 43  1  0  0  0  0
 15 44  1  0  0  0  0
 16 23  1  0  0  0  0
 16 30  1  0  0  0  0
 16 31  1  0  0  0  0
 17 25  1  0  0  0  0
 17 45  1  0  0  0  0
 17 46  1  0  0  0  0
 18 47  1  0  0  0  0
 18 48  1  0  0  0  0
 19 49  1  0  0  0  0
 19 50  1  0  0  0  0
 19 51  1  0  0  0  0
 20 52  1  0  0  0  0
 21 53  1  0  0  0  0
 21 54  1  0  0  0  0
 21 55  1  0  0  0  0
 22 56  1  0  0  0  0
 22 57  1  0  0  0  0
 22 58  1  0  0  0  0
 23 25  1  0  0  0  0
 23 59  1  0  0  0  0
 24 27  1  0  0  0  0
 24 60  1  0  0  0  0
 24 61  1  0  0  0  0
 25 62  1  0  0  0  0
 25 63  1  0  0  0  0
 26 28  1  0  0  0  0
 26 64  1  0  0  0  0
 26 65  1  0  0  0  0
 27 28  1  0  0  0  0
 27 32  1  0  0  0  0
 27 33  1  0  0  0  0
 28 66  1  0  0  0  0
 28 67  1  0  0  0  0
 29 68  1  0  0  0  0
 29 69  1  0  0  0  0
 29 70  1  0  0  0  0
 30 71  1  0  0  0  0
 30 72  1  0  0  0  0
 30 73  1  0  0  0  0
 32 74  1  0  0  0  0
 32 75  1  0  0  0  0
 32 76  1  0  0  0  0
 33 77  1  0  0  0  0
 33 78  1  0  0  0  0
 33 79  1  0  0  0  0
M  END
> <PUBCHEM_COMPOUND_CID>
637234

> <PUBCHEM_CONFORMER_RMSD>
0.8

> <PUBCHEM_CONFORMER_DIVERSEORDER>
1

> <PUBCHEM_MMFF94_PARTIAL_CHARGES>
14
1 -0.68
10 -0.28
11 0.14
15 0.14
16 0.06
2 -0.65
20 -0.29
23 0.28
3 -0.57
31 0.66
52 0.15
7 0.14
80 0.4
81 0.5

> <PUBCHEM_EFFECTIVE_ROTOR_COUNT>
3.6

> <PUBCHEM_PHARMACOPHORE_FEATURES>
11
1 1 acceptor
1 1 donor
1 2 acceptor
1 3 acceptor
3 2 3 31 anion
3 27 32 33 hydrophobe
6 11 13 24 26 27 28 rings
6 4 5 6 8 9 12 rings
6 4 5 7 10 15 20 rings
6 6 8 16 17 23 25 rings
6 7 10 11 13 14 18 rings

> <PUBCHEM_HEAVY_ATOM_COUNT>
33

> <PUBCHEM_ATOM_DEF_STEREO_COUNT>
9

> <PUBCHEM_ATOM_UDEF_STEREO_COUNT>
0

> <PUBCHEM_BOND_DEF_STEREO_COUNT>
0

> <PUBCHEM_BOND_UDEF_STEREO_COUNT>
0

> <PUBCHEM_ISOTOPIC_ATOM_COUNT>
0

> <PUBCHEM_COMPONENT_COUNT>
1

> <PUBCHEM_CACTVS_TAUTO_COUNT>
1

> <PUBCHEM_CONFORMER_ID>
0009B93200000001

> <PUBCHEM_MMFF94_ENERGY>
149.5222

> <PUBCHEM_FEATURE_SELFOVERLAP>
55.942

> <PUBCHEM_SHAPE_FINGERPRINT>
10675989 125 16688527382550628513
11456790 92 18131361804525981979
11578080 2 17388245750389961815
11719270 70 17988641865750049822
11756154 67 17768261111742162454
12166972 35 17894918446816261924
12236239 1 18407760343839542696
12422481 6 18060143111214704998
12616971 3 18131067147513930340
12633257 1 17131553932977578054
12788726 201 17346332496241698488
13224815 77 18059579126517063109
13782708 43 17313101960473046642
14341114 176 18412548716994162576
14856354 85 18268720574457421679
14955137 171 17967257519888555853
15131766 46 17899425456458340053
15142383 8 18411131412325796468
15183329 4 18343584044917635044
15238133 3 16845299314844119160
15788980 27 18333731333694586093
15799311 1 18262253216998097562
17349148 13 17632582660272278384
17844677 252 18113622291516813461
17857418 61 18343863316454855552
1813 80 17748824154816185660
21033648 29 17968078837731137540
21130935 74 17203326676538022702
21267235 1 18343308038183553974
22950370 63 18410576218808836128
23522609 53 18124064379284794624
23559900 14 18342731948965344913
23569914 152 14640157199854113194
23569917 315 17632577149861881463
23569943 247 16444453582210812018
3004659 81 18411703171599786422
34797466 226 16515691086745756892
350125 39 18342457037088864012
3633792 109 18271236115886865389
3680242 22 18130517366004208346
392239 28 18272380792889715627
4073 2 18114465673160003402
4098825 35 17967532376937776916
46194498 28 17676205806233431548
465052 167 18341899593404679518
5104073 3 18130507530133488154
54039377 194 18266462011046606590
59755656 215 17967812696014403114
6081469 158 18334005082848116541
6086070 43 17560785663507209321
7495541 125 18343021120792338848

> <PUBCHEM_SHAPE_MULTIPOLES>
661.52
16.14
2.53
1.62
4.12
0.34
-0.14
4.93
-2.32
1.01
-0.05
-0.7
0.08
-0.33

> <PUBCHEM_SHAPE_SELFOVERLAP>
1408.609

> <PUBCHEM_SHAPE_VOLUME>
363.8

> <PUBCHEM_COORDINATE_TYPE>
2
5
10

$$$$
