91617
  -OEChem-02172602483D

 65 70  0     1  0  0  0  0  0999 V2000
    0.7114   -4.4191    0.9837 O   0  0  0  0  0  0  0  0  0  0  0  0
   -0.7072   -4.4194   -0.9841 O   0  0  0  0  0  0  0  0  0  0  0  0
    3.6216    2.6261   -0.0492 O   0  0  0  0  0  0  0  0  0  0  0  0
   -3.6240    2.6228    0.0487 O   0  0  0  0  0  0  0  0  0  0  0  0
    4.9275    0.2786    0.1189 O   0  0  0  0  0  0  0  0  0  0  0  0
   -4.9276    0.2740   -0.1194 O   0  0  0  0  0  0  0  0  0  0  0  0
    1.5613    4.4242   -2.3179 O   0  0  0  0  0  0  0  0  0  0  0  0
   -1.5657    4.4226    2.3182 O   0  0  0  0  0  0  0  0  0  0  0  0
    4.7830   -2.2676    0.0498 O   0  0  0  0  0  0  0  0  0  0  0  0
   -4.7807   -2.2721   -0.0493 O   0  0  0  0  0  0  0  0  0  0  0  0
    0.7174    0.3089    0.0168 C   0  0  0  0  0  0  0  0  0  0  0  0
   -0.7177    0.3082   -0.0165 C   0  0  0  0  0  0  0  0  0  0  0  0
    1.4143   -0.9253    0.0891 C   0  0  0  0  0  0  0  0  0  0  0  0
   -1.4135   -0.9266   -0.0888 C   0  0  0  0  0  0  0  0  0  0  0  0
    0.6971   -2.1400    0.1101 C   0  0  0  0  0  0  0  0  0  0  0  0
   -0.6951   -2.1407   -0.1098 C   0  0  0  0  0  0  0  0  0  0  0  0
    1.4998    1.4926   -0.0062 C   0  0  0  0  0  0  0  0  0  0  0  0
   -1.5011    1.4911    0.0063 C   0  0  0  0  0  0  0  0  0  0  0  0
    2.8286   -0.9230    0.1230 C   0  0  0  0  0  0  0  0  0  0  0  0
   -2.8277   -0.9256   -0.1228 C   0  0  0  0  0  0  0  0  0  0  0  0
    1.4403   -3.3789    0.4422 C   0  0  0  0  0  0  0  0  0  0  0  0
   -1.4371   -3.3801   -0.4422 C   0  0  0  0  0  0  0  0  0  0  0  0
    1.0482    2.8113   -0.5824 C   0  0  0  0  0  0  0  0  0  0  0  0
   -1.0508    2.8103    0.5827 C   0  0  0  0  0  0  0  0  0  0  0  0
    2.8948    1.4710    0.0264 C   0  0  0  0  0  0  0  0  0  0  0  0
   -2.8960    1.4683   -0.0267 C   0  0  0  0  0  0  0  0  0  0  0  0
    3.5645    0.2620    0.0879 C   0  0  0  0  0  0  0  0  0  0  0  0
   -3.5647    0.2587   -0.0880 C   0  0  0  0  0  0  0  0  0  0  0  0
    3.5677   -2.2061    0.1843 C   0  0  0  0  0  0  0  0  0  0  0  0
   -3.5657   -2.2094   -0.1841 C   0  0  0  0  0  0  0  0  0  0  0  0
    2.7764   -3.4184    0.4729 C   0  0  0  0  0  0  0  0  0  0  0  0
   -2.7732   -3.4209   -0.4731 C   0  0  0  0  0  0  0  0  0  0  0  0
    1.5703    3.0318   -2.0078 C   0  0  1  0  0  0  0  0  0  0  0  0
   -1.5735    3.0303    2.0080 C   0  0  1  0  0  0  0  0  0  0  0  0
    0.0024   -5.1668   -0.0003 C   0  0  0  0  0  0  0  0  0  0  0  0
    0.7087    2.3055   -3.0330 C   0  0  0  0  0  0  0  0  0  0  0  0
   -0.7115    2.3047    3.0334 C   0  0  0  0  0  0  0  0  0  0  0  0
    3.9358    3.2704    1.1815 C   0  0  0  0  0  0  0  0  0  0  0  0
   -3.9384    3.2667   -1.1820 C   0  0  0  0  0  0  0  0  0  0  0  0
    0.0524    2.8672   -0.9676 H   0  0  0  0  0  0  0  0  0  0  0  0
    1.3320    3.6855    0.0208 H   0  0  0  0  0  0  0  0  0  0  0  0
   -0.0548    2.8621    0.9671 H   0  0  0  0  0  0  0  0  0  0  0  0
   -1.3344    3.6845   -0.0205 H   0  0  0  0  0  0  0  0  0  0  0  0
    3.3144   -4.3109    0.7729 H   0  0  0  0  0  0  0  0  0  0  0  0
   -3.3103   -4.3138   -0.7733 H   0  0  0  0  0  0  0  0  0  0  0  0
    2.6015    2.7033   -2.1595 H   0  0  0  0  0  0  0  0  0  0  0  0
   -2.6042    2.7049    2.1655 H   0  0  0  0  0  0  0  0  0  0  0  0
    0.7109   -5.8201   -0.5231 H   0  0  0  0  0  0  0  0  0  0  0  0
   -0.7055   -5.8208    0.5224 H   0  0  0  0  0  0  0  0  0  0  0  0
   -0.3128    2.7015   -3.0679 H   0  0  0  0  0  0  0  0  0  0  0  0
    1.1189    2.4578   -4.0383 H   0  0  0  0  0  0  0  0  0  0  0  0
    0.6699    1.2279   -2.8511 H   0  0  0  0  0  0  0  0  0  0  0  0
    0.3164    2.6851    3.0570 H   0  0  0  0  0  0  0  0  0  0  0  0
   -1.1122    2.4766    4.0393 H   0  0  0  0  0  0  0  0  0  0  0  0
   -0.6895    1.2246    2.8631 H   0  0  0  0  0  0  0  0  0  0  0  0
    5.2377    1.1937    0.0104 H   0  0  0  0  0  0  0  0  0  0  0  0
   -5.2387    1.1888   -0.0111 H   0  0  0  0  0  0  0  0  0  0  0  0
    1.8891    4.5272   -3.2276 H   0  0  0  0  0  0  0  0  0  0  0  0
   -0.6531    4.7456    2.2246 H   0  0  0  0  0  0  0  0  0  0  0  0
    4.6047    2.6468    1.7827 H   0  0  0  0  0  0  0  0  0  0  0  0
    3.0280    3.4945    1.7508 H   0  0  0  0  0  0  0  0  0  0  0  0
    4.4460    4.2106    0.9550 H   0  0  0  0  0  0  0  0  0  0  0  0
   -4.6065    2.6424   -1.7835 H   0  0  0  0  0  0  0  0  0  0  0  0
   -3.0307    3.4917   -1.7511 H   0  0  0  0  0  0  0  0  0  0  0  0
   -4.4496    4.2065   -0.9558 H   0  0  0  0  0  0  0  0  0  0  0  0
  1 21  1  0  0  0  0
  1 35  1  0  0  0  0
  2 22  1  0  0  0  0
  2 35  1  0  0  0  0
  3 25  1  0  0  0  0
  3 38  1  0  0  0  0
  4 26  1  0  0  0  0
  4 39  1  0  0  0  0
  5 27  1  0  0  0  0
  5 56  1  0  0  0  0
  6 28  1  0  0  0  0
  6 57  1  0  0  0  0
  7 33  1  0  0  0  0
  7 58  1  0  0  0  0
  8 34  1  0  0  0  0
  8 59  1  0  0  0  0
  9 29  2  0  0  0  0
 10 30  2  0  0  0  0
 11 12  1  0  0  0  0
 11 13  1  0  0  0  0
 11 17  2  0  0  0  0
 12 14  1  0  0  0  0
 12 18  2  0  0  0  0
 13 15  1  0  0  0  0
 13 19  2  0  0  0  0
 14 16  1  0  0  0  0
 14 20  2  0  0  0  0
 15 16  2  0  0  0  0
 15 21  1  0  0  0  0
 16 22  1  0  0  0  0
 17 23  1  0  0  0  0
 17 25  1  0  0  0  0
 18 24  1  0  0  0  0
 18 26  1  0  0  0  0
 19 27  1  0  0  0  0
 19 29  1  0  0  0  0
 20 28  1  0  0  0  0
 20 30  1  0  0  0  0
 21 31  2  0  0  0  0
 22 32  2  0  0  0  0
 23 33  1  0  0  0  0
 23 40  1  0  0  0  0
 23 41  1  0  0  0  0
 24 34  1  0  0  0  0
 24 42  1  0  0  0  0
 24 43  1  0  0  0  0
 25 27  2  0  0  0  0
 26 28  2  0  0  0  0
 29 31  1  0  0  0  0
 30 32  1  0  0  0  0
 31 44  1  0  0  0  0
 32 45  1  0  0  0  0
 33 36  1  0  0  0  0
 33 46  1  0  0  0  0
 34 37  1  0  0  0  0
 34 47  1  0  0  0  0
 35 48  1  0  0  0  0
 35 49  1  0  0  0  0
 36 50  1  0  0  0  0
 36 51  1  0  0  0  0
 36 52  1  0  0  0  0
 37 53  1  0  0  0  0
 37 54  1  0  0  0  0
 37 55  1  0  0  0  0
 38 60  1  0  0  0  0
 38 61  1  0  0  0  0
 38 62  1  0  0  0  0
 39 63  1  0  0  0  0
 39 64  1  0  0  0  0
 39 65  1  0  0  0  0
M  END
> <PUBCHEM_COMPOUND_CID>
91617

> <PUBCHEM_CONFORMER_RMSD>
1

> <PUBCHEM_CONFORMER_DIVERSEORDER>
1
2
3

> <PUBCHEM_MMFF94_PARTIAL_CHARGES>
39
1 -0.36
10 -0.57
15 0.03
16 0.03
17 -0.14
18 -0.14
19 0.09
2 -0.36
20 0.09
21 0.05
22 0.05
23 0.14
24 0.14
25 0.08
26 0.08
27 0.08
28 0.08
29 0.47
3 -0.36
30 0.47
31 -0.14
32 -0.14
33 0.28
34 0.28
35 0.56
38 0.28
39 0.28
4 -0.36
44 0.15
45 0.15
5 -0.53
56 0.45
57 0.45
58 0.4
59 0.4
6 -0.53
7 -0.68
8 -0.68
9 -0.57

> <PUBCHEM_EFFECTIVE_ROTOR_COUNT>
6.6

> <PUBCHEM_PHARMACOPHORE_FEATURES>
18
1 1 acceptor
1 10 acceptor
1 2 acceptor
1 3 acceptor
1 4 acceptor
1 5 donor
1 6 donor
1 7 acceptor
1 7 donor
1 8 acceptor
1 8 donor
1 9 acceptor
6 11 12 13 14 15 16 rings
6 11 13 17 19 25 27 rings
6 12 14 18 20 26 28 rings
6 13 15 19 21 29 31 rings
6 14 16 20 22 30 32 rings
7 1 2 15 16 21 22 35 rings

> <PUBCHEM_HEAVY_ATOM_COUNT>
39

> <PUBCHEM_ATOM_DEF_STEREO_COUNT>
2

> <PUBCHEM_ATOM_UDEF_STEREO_COUNT>
0

> <PUBCHEM_BOND_DEF_STEREO_COUNT>
0

> <PUBCHEM_BOND_UDEF_STEREO_COUNT>
0

> <PUBCHEM_ISOTOPIC_ATOM_COUNT>
0

> <PUBCHEM_COMPONENT_COUNT>
1

> <PUBCHEM_CACTVS_TAUTO_COUNT>
78

> <PUBCHEM_CONFORMER_ID>
000165E100000001

> <PUBCHEM_MMFF94_ENERGY>
264.2413

> <PUBCHEM_FEATURE_SELFOVERLAP>
91.562

> <PUBCHEM_SHAPE_FINGERPRINT>
10675989 125 18338784638155471237
1100329 8 18340767026996482666
11513181 2 18060133198304235790
12156800 1 16021901333386033425
12788726 201 18196105558173156888
13140716 1 18341058466798681451
14068700 675 18342450426606837190
14117953 113 17546153109039975343
14295345 954 17473844827037288817
144659 178 17543626882385877116
14725015 67 17040057210006739778
14790565 3 18410577287981392706
15320467 1 18266456701136836078
16067690 210 15119831143541106034
19319366 153 17974567206260435887
19591789 44 18410854364912046979
20642791 105 18336814386122216857
20739085 24 17759830064315111553
20764821 26 14662172162751260014
20775438 99 15666991976796381197
23559900 14 18196923392649341402
3380486 145 16897092630430996305
350125 39 18410294722093492915
392239 28 18129377266877729880
45266715 3 17623250139263008359
463206 1 18052259792979184178

> <PUBCHEM_SHAPE_MULTIPOLES>
743.91
7.33
7.32
1.7
3.19
0.01
0
-0.02
0.01
-0.51
-0.01
-2.86
0.01
1.3

> <PUBCHEM_SHAPE_SELFOVERLAP>
1696.192

> <PUBCHEM_SHAPE_VOLUME>
384.3

> <PUBCHEM_COORDINATE_TYPE>
2
5
10

$$$$
