122822
  -OEChem-02172602473D

 48 52  0     0  0  0  0  0  0999 V2000
   -1.8666   -2.3810   -1.8235 O   0  0  0  0  0  0  0  0  0  0  0  0
    1.8670   -2.3819    1.8222 O   0  0  0  0  0  0  0  0  0  0  0  0
    0.3966   -2.4712   -2.6445 O   0  0  0  0  0  0  0  0  0  0  0  0
   -0.3960   -2.4729    2.6434 O   0  0  0  0  0  0  0  0  0  0  0  0
   -2.6383    0.4920   -1.5616 N   0  0  0  0  0  0  0  0  0  0  0  0
    2.6384    0.4907    1.5617 N   0  0  0  0  0  0  0  0  0  0  0  0
   -1.6834    0.4050    0.5710 C   0  0  0  0  0  0  0  0  0  0  0  0
    1.6833    0.4058   -0.5708 C   0  0  0  0  0  0  0  0  0  0  0  0
   -1.5856    0.0922   -0.8896 C   0  0  0  0  0  0  0  0  0  0  0  0
    1.5856    0.0916    0.8894 C   0  0  0  0  0  0  0  0  0  0  0  0
   -2.9716    1.0822    0.6931 C   0  0  0  0  0  0  0  0  0  0  0  0
    2.9713    1.0832   -0.6924 C   0  0  0  0  0  0  0  0  0  0  0  0
   -0.4108   -0.5784   -1.4701 C   0  0  0  0  0  0  0  0  0  0  0  0
    0.4107   -0.5794    1.4696 C   0  0  0  0  0  0  0  0  0  0  0  0
    0.8481    0.1165   -1.5747 C   0  0  0  0  0  0  0  0  0  0  0  0
   -0.8482    0.1150    1.5747 C   0  0  0  0  0  0  0  0  0  0  0  0
   -3.4921    1.0983   -0.6108 C   0  0  0  0  0  0  0  0  0  0  0  0
    3.4920    1.0978    0.6113 C   0  0  0  0  0  0  0  0  0  0  0  0
   -3.6639    1.6332    1.7567 C   0  0  0  0  0  0  0  0  0  0  0  0
    3.6632    1.6355   -1.7555 C   0  0  0  0  0  0  0  0  0  0  0  0
   -4.7260    1.6722   -0.8719 C   0  0  0  0  0  0  0  0  0  0  0  0
    4.7263    1.6711    0.8727 C   0  0  0  0  0  0  0  0  0  0  0  0
   -0.6161   -1.8005   -1.9780 C   0  0  0  0  0  0  0  0  0  0  0  0
    0.6164   -1.8017    1.9771 C   0  0  0  0  0  0  0  0  0  0  0  0
   -4.9082    2.2123    1.4967 C   0  0  0  0  0  0  0  0  0  0  0  0
    4.9077    2.2141   -1.4953 C   0  0  0  0  0  0  0  0  0  0  0  0
   -5.4350    2.2318    0.1943 C   0  0  0  0  0  0  0  0  0  0  0  0
    5.4349    2.2318   -0.1931 C   0  0  0  0  0  0  0  0  0  0  0  0
   -1.8375   -3.8023   -1.7524 C   0  0  0  0  0  0  0  0  0  0  0  0
    1.8380   -3.8031    1.7505 C   0  0  0  0  0  0  0  0  0  0  0  0
    1.1103    0.4134   -2.5890 H   0  0  0  0  0  0  0  0  0  0  0  0
   -1.1106    0.4110    2.5891 H   0  0  0  0  0  0  0  0  0  0  0  0
   -3.2660    1.6228    2.7653 H   0  0  0  0  0  0  0  0  0  0  0  0
    3.2650    1.6263   -2.7640 H   0  0  0  0  0  0  0  0  0  0  0  0
   -5.1365    1.6906   -1.8758 H   0  0  0  0  0  0  0  0  0  0  0  0
    5.1370    1.6881    1.8765 H   0  0  0  0  0  0  0  0  0  0  0  0
   -5.4772    2.6537    2.3107 H   0  0  0  0  0  0  0  0  0  0  0  0
    5.4765    2.6564   -2.3090 H   0  0  0  0  0  0  0  0  0  0  0  0
   -6.4050    2.6881    0.0156 H   0  0  0  0  0  0  0  0  0  0  0  0
    6.4050    2.6877   -0.0141 H   0  0  0  0  0  0  0  0  0  0  0  0
    1.2110   -1.9439   -2.6415 H   0  0  0  0  0  0  0  0  0  0  0  0
   -1.2106   -1.9457    2.6406 H   0  0  0  0  0  0  0  0  0  0  0  0
   -1.1666   -4.1396   -0.9551 H   0  0  0  0  0  0  0  0  0  0  0  0
   -1.5379   -4.2323   -2.7136 H   0  0  0  0  0  0  0  0  0  0  0  0
   -2.8481   -4.1514   -1.5219 H   0  0  0  0  0  0  0  0  0  0  0  0
    1.1670   -4.1401    0.9530 H   0  0  0  0  0  0  0  0  0  0  0  0
    1.5386   -4.2336    2.7115 H   0  0  0  0  0  0  0  0  0  0  0  0
    2.8486   -4.1521    1.5197 H   0  0  0  0  0  0  0  0  0  0  0  0
  1 23  1  0  0  0  0
  1 29  1  0  0  0  0
  2 24  1  0  0  0  0
  2 30  1  0  0  0  0
  3 23  1  0  0  0  0
  3 41  1  0  0  0  0
  4 24  1  0  0  0  0
  4 42  1  0  0  0  0
  5  9  2  0  0  0  0
  5 17  1  0  0  0  0
  6 10  2  0  0  0  0
  6 18  1  0  0  0  0
  7  9  1  0  0  0  0
  7 11  1  0  0  0  0
  7 16  2  0  0  0  0
  8 10  1  0  0  0  0
  8 12  1  0  0  0  0
  8 15  2  0  0  0  0
  9 13  1  0  0  0  0
 10 14  1  0  0  0  0
 11 17  1  0  0  0  0
 11 19  2  0  0  0  0
 12 18  1  0  0  0  0
 12 20  2  0  0  0  0
 13 15  1  0  0  0  0
 13 23  2  3  0  0  0
 14 16  1  0  0  0  0
 14 24  2  3  0  0  0
 15 31  1  0  0  0  0
 16 32  1  0  0  0  0
 17 21  2  0  0  0  0
 18 22  2  0  0  0  0
 19 25  1  0  0  0  0
 19 33  1  0  0  0  0
 20 26  1  0  0  0  0
 20 34  1  0  0  0  0
 21 27  1  0  0  0  0
 21 35  1  0  0  0  0
 22 28  1  0  0  0  0
 22 36  1  0  0  0  0
 25 27  2  0  0  0  0
 25 37  1  0  0  0  0
 26 28  2  0  0  0  0
 26 38  1  0  0  0  0
 27 39  1  0  0  0  0
 28 40  1  0  0  0  0
 29 43  1  0  0  0  0
 29 44  1  0  0  0  0
 29 45  1  0  0  0  0
 30 46  1  0  0  0  0
 30 47  1  0  0  0  0
 30 48  1  0  0  0  0
M  END
> <PUBCHEM_COMPOUND_CID>
122822

> <PUBCHEM_CONFORMER_RMSD>
0.6

> <PUBCHEM_CONFORMER_DIVERSEORDER>
1

> <PUBCHEM_MMFF94_PARTIAL_CHARGES>
42
1 -0.36
10 0.42
11 0.03
12 0.03
13 0.01
14 0.01
15 -0.15
16 -0.15
17 0.18
18 0.18
19 -0.15
2 -0.36
20 -0.15
21 -0.15
22 -0.15
23 0.15
24 0.15
25 -0.15
26 -0.15
27 -0.15
28 -0.15
29 0.28
3 -0.53
30 0.28
31 0.15
32 0.15
33 0.15
34 0.15
35 0.15
36 0.15
37 0.15
38 0.15
39 0.15
4 -0.53
40 0.15
41 0.45
42 0.45
5 -0.63
6 -0.63
7 -0.01
8 -0.01
9 0.42

> <PUBCHEM_EFFECTIVE_ROTOR_COUNT>
2

> <PUBCHEM_PHARMACOPHORE_FEATURES>
10
1 1 acceptor
1 2 acceptor
1 3 donor
1 4 donor
1 5 acceptor
1 6 acceptor
5 5 7 9 11 17 rings
5 6 8 10 12 18 rings
6 11 17 19 21 25 27 rings
6 12 18 20 22 26 28 rings

> <PUBCHEM_HEAVY_ATOM_COUNT>
30

> <PUBCHEM_ATOM_DEF_STEREO_COUNT>
0

> <PUBCHEM_ATOM_UDEF_STEREO_COUNT>
0

> <PUBCHEM_BOND_DEF_STEREO_COUNT>
0

> <PUBCHEM_BOND_UDEF_STEREO_COUNT>
2

> <PUBCHEM_ISOTOPIC_ATOM_COUNT>
0

> <PUBCHEM_COMPONENT_COUNT>
1

> <PUBCHEM_CACTVS_TAUTO_COUNT>
8

> <PUBCHEM_CONFORMER_ID>
0001DFC600000001

> <PUBCHEM_MMFF94_ENERGY>
140.9118

> <PUBCHEM_FEATURE_SELFOVERLAP>
50.941

> <PUBCHEM_SHAPE_FINGERPRINT>
10258939 38 16839356682883604322
105312 117 18131077055661143173
11421498 54 18120920961693471511
11582403 64 18410860953391352868
11640471 11 18338785771462510209
1200032 147 17914640288052167513
12788726 201 17906452486747090766
13583140 156 18261386776360966617
13965767 371 18269271262184539813
144659 39 18413113840317593803
14713325 29 17986960841093215887
14932701 244 17765701804231175480
15163728 17 18200602371795073477
1813 80 17692246344393979890
19319366 153 18335413552341805280
1979834 28 17095821918700388985
20642791 178 17129032560079603655
20775438 99 12605390059485030829
21033650 10 18125726931676827452
21120745 212 16524727062370908632
21756936 100 18042975453024134964
22121540 332 16444463468888267471
22182313 1 16414062200482681432
229495 10 17897984889998262149
23419403 2 17547631041672822546
23493267 7 17917703643009801899
23559900 14 16155133573262084283
27425 322 18335430113767613436
3759504 43 18060421339222624301
4058900 60 17987254239395044577
469060 322 17412204413892022934
484985 159 16269152022729853030
6823239 73 15431753899295427715

> <PUBCHEM_SHAPE_MULTIPOLES>
583.95
9.64
3.73
2.64
0
4.12
0
-12.4
0
0
0
0
1.95
-2.55

> <PUBCHEM_SHAPE_SELFOVERLAP>
1318.067

> <PUBCHEM_SHAPE_VOLUME>
304.6

> <PUBCHEM_COORDINATE_TYPE>
2
5
10

$$$$
