643098
  -OEChem-02172602393D

 18 18  0     1  0  0  0  0  0999 V2000
   -2.6643   -0.7895   -0.5873 S   0  0  0  0  0  0  0  0  0  0  0  0
    2.6653   -0.7905    0.5849 S   0  0  0  0  0  0  0  0  0  0  0  0
    0.0001   -2.2969    0.0006 O   0  0  0  0  0  0  0  0  0  0  0  0
   -4.5359    1.1606    0.3232 N   0  0  0  0  0  0  0  0  0  0  0  0
    4.5351    1.1614   -0.3253 N   0  0  0  0  0  0  0  0  0  0  0  0
   -0.7487    1.1649   -0.1452 C   0  0  0  0  0  0  0  0  0  0  0  0
    0.7488    1.1644    0.1495 C   0  0  0  0  0  0  0  0  0  0  0  0
   -1.2108   -0.2187    0.3120 C   0  0  2  0  0  0  0  0  0  0  0  0
    1.2103   -0.2183   -0.3109 C   0  0  2  0  0  0  0  0  0  0  0  0
    0.0000   -1.0713    0.0008 C   0  0  0  0  0  0  0  0  0  0  0  0
   -3.7755    0.3669   -0.0477 C   0  0  0  0  0  0  0  0  0  0  0  0
    3.7755    0.3670    0.0454 C   0  0  0  0  0  0  0  0  0  0  0  0
   -1.2602    1.9721    0.3891 H   0  0  0  0  0  0  0  0  0  0  0  0
   -0.9010    1.3186   -1.2216 H   0  0  0  0  0  0  0  0  0  0  0  0
    1.2604    1.9727   -0.3829 H   0  0  0  0  0  0  0  0  0  0  0  0
    0.9012    1.3155    1.2262 H   0  0  0  0  0  0  0  0  0  0  0  0
   -1.3720   -0.2425    1.3956 H   0  0  0  0  0  0  0  0  0  0  0  0
    1.3697   -0.2402   -1.3949 H   0  0  0  0  0  0  0  0  0  0  0  0
  1  8  1  0  0  0  0
  1 11  1  0  0  0  0
  2  9  1  0  0  0  0
  2 12  1  0  0  0  0
  3 10  2  0  0  0  0
  4 11  3  0  0  0  0
  5 12  3  0  0  0  0
  6  7  1  0  0  0  0
  6  8  1  0  0  0  0
  6 13  1  0  0  0  0
  6 14  1  0  0  0  0
  7  9  1  0  0  0  0
  7 15  1  0  0  0  0
  7 16  1  0  0  0  0
  8 10  1  0  0  0  0
  8 17  1  0  0  0  0
  9 10  1  0  0  0  0
  9 18  1  0  0  0  0
M  END
> <PUBCHEM_COMPOUND_CID>
643098

> <PUBCHEM_CONFORMER_RMSD>
0.6

> <PUBCHEM_CONFORMER_DIVERSEORDER>
1
5
4
6
2
3

> <PUBCHEM_MMFF94_PARTIAL_CHARGES>
10
1 -0.27
10 0.45
11 0.59
12 0.59
2 -0.27
3 -0.57
4 -0.56
5 -0.56
8 0.29
9 0.29

> <PUBCHEM_EFFECTIVE_ROTOR_COUNT>
2.8

> <PUBCHEM_PHARMACOPHORE_FEATURES>
4
1 3 acceptor
1 4 acceptor
1 5 acceptor
5 6 7 8 9 10 rings

> <PUBCHEM_HEAVY_ATOM_COUNT>
12

> <PUBCHEM_ATOM_DEF_STEREO_COUNT>
2

> <PUBCHEM_ATOM_UDEF_STEREO_COUNT>
0

> <PUBCHEM_BOND_DEF_STEREO_COUNT>
0

> <PUBCHEM_BOND_UDEF_STEREO_COUNT>
0

> <PUBCHEM_ISOTOPIC_ATOM_COUNT>
0

> <PUBCHEM_COMPONENT_COUNT>
1

> <PUBCHEM_CACTVS_TAUTO_COUNT>
2

> <PUBCHEM_CONFORMER_ID>
0009D01A00000001

> <PUBCHEM_MMFF94_ENERGY>
14.5486

> <PUBCHEM_FEATURE_SELFOVERLAP>
20.297

> <PUBCHEM_SHAPE_FINGERPRINT>
10219947 1 18335138661486538339
11062470 55 18410291414963393729
11401426 45 18343015605595264684
12346645 44 18412263896185167889
13760787 5 18261382330426061550
14325111 11 18410290311188538118
14993402 34 18411696621083641462
15775835 57 18410854364911585767
18186145 218 18411130338193537036
18342897 14 18408886235061492281
20645477 70 18130791096902157822
20671657 1 17972605651809899181
23402539 116 18272926137798278516
23402655 69 18201999923644666036
23559900 14 18272370893548819030
2748010 2 17834669779385129226
366044 4 18410011052457267226
449060 62 18410572864539624346
528886 8 18411693288294644787
53812653 166 18341608217858341297

> <PUBCHEM_SHAPE_MULTIPOLES>
238.82
7.56
1.6
0.71
0
0.45
0
-3.03
-0.01
0
0
0
0.03
-0.48

> <PUBCHEM_SHAPE_SELFOVERLAP>
455.691

> <PUBCHEM_SHAPE_VOLUME>
144.3

> <PUBCHEM_COORDINATE_TYPE>
2
5
10

$$$$
