10891543
  -OEChem-02172602433D

 32 32  0     1  0  0  0  0  0999 V2000
    1.3695   -1.4454    1.8649 Cl  0  0  0  0  0  0  0  0  0  0  0  0
    1.3517   -2.5790   -0.8068 Cl  0  0  0  0  0  0  0  0  0  0  0  0
    1.0551    1.3021    0.3287 O   0  0  0  0  0  0  0  0  0  0  0  0
    4.0046   -1.2487    0.6653 O   0  0  0  0  0  0  0  0  0  0  0  0
   -0.3842    2.4787   -1.0427 O   0  0  0  0  0  0  0  0  0  0  0  0
    0.7138    0.0866   -0.3486 C   0  0  2  0  0  0  0  0  0  0  0  0
   -0.7797   -0.1457   -0.1923 C   0  0  0  0  0  0  0  0  0  0  0  0
    1.6343   -1.0678    0.1255 C   0  0  0  0  0  0  0  0  0  0  0  0
   -1.4876   -0.6823   -1.2498 C   0  0  0  0  0  0  0  0  0  0  0  0
   -1.3872    0.1861    1.0024 C   0  0  0  0  0  0  0  0  0  0  0  0
    3.1328   -0.7658   -0.0616 C   0  0  0  0  0  0  0  0  0  0  0  0
   -3.4937   -0.5683    0.0914 C   0  0  0  0  0  0  0  0  0  0  0  0
   -2.8586   -0.8957   -1.1064 C   0  0  0  0  0  0  0  0  0  0  0  0
   -2.7582   -0.0274    1.1459 C   0  0  0  0  0  0  0  0  0  0  0  0
    3.5434    0.1386   -1.2022 C   0  0  0  0  0  0  0  0  0  0  0  0
   -4.9595   -0.7958    0.2445 C   0  0  0  0  0  0  0  0  0  0  0  0
    0.4263    2.4216   -0.1278 C   0  0  0  0  0  0  0  0  0  0  0  0
    0.8772    3.6080    0.6693 C   0  0  0  0  0  0  0  0  0  0  0  0
    0.9113    0.2614   -1.4160 H   0  0  0  0  0  0  0  0  0  0  0  0
   -1.0045   -0.9355   -2.1886 H   0  0  0  0  0  0  0  0  0  0  0  0
   -0.8392    0.6060    1.8402 H   0  0  0  0  0  0  0  0  0  0  0  0
   -3.4214   -1.3149   -1.9363 H   0  0  0  0  0  0  0  0  0  0  0  0
   -3.2421    0.2331    2.0835 H   0  0  0  0  0  0  0  0  0  0  0  0
    3.2783    1.1747   -0.9860 H   0  0  0  0  0  0  0  0  0  0  0  0
    3.0805   -0.1952   -2.1338 H   0  0  0  0  0  0  0  0  0  0  0  0
    4.6288    0.0828   -1.3313 H   0  0  0  0  0  0  0  0  0  0  0  0
   -5.2181   -1.0193    1.2852 H   0  0  0  0  0  0  0  0  0  0  0  0
   -5.5127    0.0943   -0.0710 H   0  0  0  0  0  0  0  0  0  0  0  0
   -5.2923   -1.6479   -0.3579 H   0  0  0  0  0  0  0  0  0  0  0  0
    1.9560    3.7415    0.5568 H   0  0  0  0  0  0  0  0  0  0  0  0
    0.6133    3.4695    1.7207 H   0  0  0  0  0  0  0  0  0  0  0  0
    0.3744    4.5059    0.2988 H   0  0  0  0  0  0  0  0  0  0  0  0
  1  8  1  0  0  0  0
  2  8  1  0  0  0  0
  3  6  1  0  0  0  0
  3 17  1  0  0  0  0
  4 11  2  0  0  0  0
  5 17  2  0  0  0  0
  6  7  1  0  0  0  0
  6  8  1  0  0  0  0
  6 19  1  0  0  0  0
  7  9  2  0  0  0  0
  7 10  1  0  0  0  0
  8 11  1  0  0  0  0
  9 13  1  0  0  0  0
  9 20  1  0  0  0  0
 10 14  2  0  0  0  0
 10 21  1  0  0  0  0
 11 15  1  0  0  0  0
 12 13  2  0  0  0  0
 12 14  1  0  0  0  0
 12 16  1  0  0  0  0
 13 22  1  0  0  0  0
 14 23  1  0  0  0  0
 15 24  1  0  0  0  0
 15 25  1  0  0  0  0
 15 26  1  0  0  0  0
 16 27  1  0  0  0  0
 16 28  1  0  0  0  0
 16 29  1  0  0  0  0
 17 18  1  0  0  0  0
 18 30  1  0  0  0  0
 18 31  1  0  0  0  0
 18 32  1  0  0  0  0
M  END
> <PUBCHEM_COMPOUND_CID>
10891543

> <PUBCHEM_CONFORMER_RMSD>
0.6

> <PUBCHEM_CONFORMER_DIVERSEORDER>
1
18
21
22
16
7
17
13
9
20
4
15
11
5
3
6
19
8
12
2
10
14

> <PUBCHEM_MMFF94_PARTIAL_CHARGES>
22
1 -0.29
10 -0.15
11 0.45
12 -0.14
13 -0.15
14 -0.15
15 0.06
16 0.14
17 0.66
18 0.06
2 -0.29
20 0.15
21 0.15
22 0.15
23 0.15
3 -0.43
4 -0.57
5 -0.57
6 0.42
7 -0.14
8 0.64
9 -0.15

> <PUBCHEM_EFFECTIVE_ROTOR_COUNT>
5

> <PUBCHEM_PHARMACOPHORE_FEATURES>
3
1 4 acceptor
1 5 acceptor
6 7 9 10 12 13 14 rings

> <PUBCHEM_HEAVY_ATOM_COUNT>
18

> <PUBCHEM_ATOM_DEF_STEREO_COUNT>
0

> <PUBCHEM_ATOM_UDEF_STEREO_COUNT>
1

> <PUBCHEM_BOND_DEF_STEREO_COUNT>
0

> <PUBCHEM_BOND_UDEF_STEREO_COUNT>
0

> <PUBCHEM_ISOTOPIC_ATOM_COUNT>
0

> <PUBCHEM_COMPONENT_COUNT>
1

> <PUBCHEM_CACTVS_TAUTO_COUNT>
2

> <PUBCHEM_CONFORMER_ID>
00A6311700000001

> <PUBCHEM_MMFF94_ENERGY>
45.1947

> <PUBCHEM_FEATURE_SELFOVERLAP>
15.223

> <PUBCHEM_SHAPE_FINGERPRINT>
10989021 7 18413389855910667049
11578080 2 17773002359692482801
12326174 3 18261945362094533921
12553582 1 18413384328324706646
13140716 1 18196648716537710563
14787075 74 17968379065083428594
14993402 34 18343310279006547663
15375462 189 18260542320828136243
15490181 8 17326328225929195996
1601671 61 18271249309567423453
16945 1 17703782596443631331
1813 80 18272944803488666310
19010151 120 18411141316092898882
19868273 325 18339356362204910212
200 152 17894908490839372314
20361792 2 18411971455935514975
20559304 39 18202009849762252537
20645477 70 18265890431938884943
21041028 32 18411985754188033673
21296965 67 18336261262821619821
21524375 3 17616521204756757009
22112679 90 18271538506520929000
2255824 54 18269275836155307213
23402539 116 18335136432757558698
23419403 2 15149888655764836627
23526113 38 17313107462125439089
23557571 272 18197495134759675830
23558518 356 17331669155300841996
23559900 14 18340203120056800987
23598288 3 17976805507059968302
23598291 2 18058446668152864533
2748010 2 18195781068993878084
305870 269 17980479289020342065
3060560 45 18343021133223664198
3286 77 18187928425846808383
34934 24 18266464204629630577
474 4 18053379091611262736
6992083 37 18131358488014747251
7364860 26 18269837686755596657
81228 2 17975144144884923320
84936 182 17699286878313806393
9981440 41 13049934855699018582

> <PUBCHEM_SHAPE_MULTIPOLES>
356.56
6.39
2.86
1.35
3.84
3
-0.24
-3.13
-0.06
-1.8
0
-0.14
-0.32
-0.32

> <PUBCHEM_SHAPE_SELFOVERLAP>
717.478

> <PUBCHEM_SHAPE_VOLUME>
208.5

> <PUBCHEM_COORDINATE_TYPE>
2
5
10

$$$$
