5366442
  -OEChem-02172602433D

 52 51  0     0  0  0  0  0  0999 V2000
   -1.4740    2.0891    1.1476 Si  0  0  0  0  0  0  0  0  0  0  0  0
    3.2659    1.1164   -0.4854 Si  0  0  0  0  0  0  0  0  0  0  0  0
   -1.3551    1.2035   -0.2689 O   0  0  0  0  0  0  0  0  0  0  0  0
    2.6360    0.0226    0.6149 O   0  0  0  0  0  0  0  0  0  0  0  0
   -3.5073    1.4401   -1.0817 O   0  0  0  0  0  0  0  0  0  0  0  0
    1.9367   -1.6556   -0.8179 O   0  0  0  0  0  0  0  0  0  0  0  0
    0.1550    2.0930    2.0856 C   0  0  0  0  0  0  0  0  0  0  0  0
   -2.8156    1.3833    2.2601 C   0  0  0  0  0  0  0  0  0  0  0  0
   -1.9232    3.8752    0.7547 C   0  0  0  0  0  0  0  0  0  0  0  0
    1.9552    1.6591   -1.7183 C   0  0  0  0  0  0  0  0  0  0  0  0
    4.6813    0.3248   -1.4419 C   0  0  0  0  0  0  0  0  0  0  0  0
    3.9404    2.6391    0.3889 C   0  0  0  0  0  0  0  0  0  0  0  0
   -1.8634    0.1568   -2.3140 C   0  0  0  0  0  0  0  0  0  0  0  0
   -2.3632    1.0113   -1.1674 C   0  0  0  0  0  0  0  0  0  0  0  0
   -1.3976   -1.2204   -1.8420 C   0  0  0  0  0  0  0  0  0  0  0  0
    2.0892   -1.1878    0.3041 C   0  0  0  0  0  0  0  0  0  0  0  0
    1.6338   -1.8827    1.5637 C   0  0  0  0  0  0  0  0  0  0  0  0
   -2.5085   -1.9886   -1.1830 C   0  0  0  0  0  0  0  0  0  0  0  0
   -1.3025   -2.1797    1.0088 C   0  0  0  0  0  0  0  0  0  0  0  0
   -2.4635   -2.4150    0.0880 C   0  0  0  0  0  0  0  0  0  0  0  0
    0.9962   -3.1773    1.1757 C   0  0  0  0  0  0  0  0  0  0  0  0
   -0.3155   -3.3072    0.9284 C   0  0  0  0  0  0  0  0  0  0  0  0
    0.9267    2.5962    1.5006 H   0  0  0  0  0  0  0  0  0  0  0  0
    0.0479    2.6253    3.0353 H   0  0  0  0  0  0  0  0  0  0  0  0
    0.4820    1.0737    2.3008 H   0  0  0  0  0  0  0  0  0  0  0  0
   -3.7890    1.4086    1.7620 H   0  0  0  0  0  0  0  0  0  0  0  0
   -2.5906    0.3457    2.5223 H   0  0  0  0  0  0  0  0  0  0  0  0
   -2.8899    1.9620    3.1856 H   0  0  0  0  0  0  0  0  0  0  0  0
   -2.8948    3.9306    0.2558 H   0  0  0  0  0  0  0  0  0  0  0  0
   -1.9741    4.4684    1.6725 H   0  0  0  0  0  0  0  0  0  0  0  0
   -1.1717    4.3217    0.0969 H   0  0  0  0  0  0  0  0  0  0  0  0
    1.1502    2.1989   -1.2137 H   0  0  0  0  0  0  0  0  0  0  0  0
    2.3898    2.3242   -2.4703 H   0  0  0  0  0  0  0  0  0  0  0  0
    1.5239    0.7966   -2.2339 H   0  0  0  0  0  0  0  0  0  0  0  0
    5.4642   -0.0131   -0.7567 H   0  0  0  0  0  0  0  0  0  0  0  0
    4.3283   -0.5379   -2.0142 H   0  0  0  0  0  0  0  0  0  0  0  0
    5.1209    1.0430   -2.1403 H   0  0  0  0  0  0  0  0  0  0  0  0
    4.3818    3.3318   -0.3338 H   0  0  0  0  0  0  0  0  0  0  0  0
    4.7137    2.3553    1.1088 H   0  0  0  0  0  0  0  0  0  0  0  0
    3.1480    3.1657    0.9266 H   0  0  0  0  0  0  0  0  0  0  0  0
   -2.6775    0.0556   -3.0420 H   0  0  0  0  0  0  0  0  0  0  0  0
   -1.0513    0.6922   -2.8179 H   0  0  0  0  0  0  0  0  0  0  0  0
   -0.5143   -1.1079   -1.2145 H   0  0  0  0  0  0  0  0  0  0  0  0
   -1.0684   -1.7935   -2.7177 H   0  0  0  0  0  0  0  0  0  0  0  0
    2.5084   -2.0885    2.1898 H   0  0  0  0  0  0  0  0  0  0  0  0
    0.9574   -1.2367    2.1285 H   0  0  0  0  0  0  0  0  0  0  0  0
   -3.3865   -2.2166   -1.7816 H   0  0  0  0  0  0  0  0  0  0  0  0
   -1.7028   -2.1482    2.0304 H   0  0  0  0  0  0  0  0  0  0  0  0
   -0.8499   -1.2022    0.8406 H   0  0  0  0  0  0  0  0  0  0  0  0
   -3.3063   -2.9801    0.4781 H   0  0  0  0  0  0  0  0  0  0  0  0
    1.6343   -4.0541    1.1047 H   0  0  0  0  0  0  0  0  0  0  0  0
   -0.6898   -4.3015    0.6940 H   0  0  0  0  0  0  0  0  0  0  0  0
  1  3  1  0  0  0  0
  1  7  1  0  0  0  0
  1  8  1  0  0  0  0
  1  9  1  0  0  0  0
  2  4  1  0  0  0  0
  2 10  1  0  0  0  0
  2 11  1  0  0  0  0
  2 12  1  0  0  0  0
  3 14  1  0  0  0  0
  4 16  1  0  0  0  0
  5 14  2  0  0  0  0
  6 16  2  0  0  0  0
  7 23  1  0  0  0  0
  7 24  1  0  0  0  0
  7 25  1  0  0  0  0
  8 26  1  0  0  0  0
  8 27  1  0  0  0  0
  8 28  1  0  0  0  0
  9 29  1  0  0  0  0
  9 30  1  0  0  0  0
  9 31  1  0  0  0  0
 10 32  1  0  0  0  0
 10 33  1  0  0  0  0
 10 34  1  0  0  0  0
 11 35  1  0  0  0  0
 11 36  1  0  0  0  0
 11 37  1  0  0  0  0
 12 38  1  0  0  0  0
 12 39  1  0  0  0  0
 12 40  1  0  0  0  0
 13 14  1  0  0  0  0
 13 15  1  0  0  0  0
 13 41  1  0  0  0  0
 13 42  1  0  0  0  0
 15 18  1  0  0  0  0
 15 43  1  0  0  0  0
 15 44  1  0  0  0  0
 16 17  1  0  0  0  0
 17 21  1  0  0  0  0
 17 45  1  0  0  0  0
 17 46  1  0  0  0  0
 18 20  2  0  0  0  0
 18 47  1  0  0  0  0
 19 20  1  0  0  0  0
 19 22  1  0  0  0  0
 19 48  1  0  0  0  0
 19 49  1  0  0  0  0
 20 50  1  0  0  0  0
 21 22  2  0  0  0  0
 21 51  1  0  0  0  0
 22 52  1  0  0  0  0
M  END
> <PUBCHEM_COMPOUND_CID>
5366442

> <PUBCHEM_CONFORMER_RMSD>
1.6

> <PUBCHEM_CONFORMER_DIVERSEORDER>
1
16
6
11
9
10
7
4
14
13
5
17
15
2
8
12
3

> <PUBCHEM_MMFF94_PARTIAL_CHARGES>
26
1 0.54
10 -0.08
11 -0.08
12 -0.08
13 0.06
14 0.66
15 0.14
16 0.66
17 0.2
18 -0.29
19 0.28
2 0.54
20 -0.29
21 -0.29
22 -0.29
3 -0.45
4 -0.45
47 0.15
5 -0.57
50 0.15
51 0.15
52 0.15
6 -0.57
7 -0.08
8 -0.08
9 -0.08

> <PUBCHEM_EFFECTIVE_ROTOR_COUNT>
11

> <PUBCHEM_PHARMACOPHORE_FEATURES>
2
1 5 acceptor
1 6 acceptor

> <PUBCHEM_HEAVY_ATOM_COUNT>
22

> <PUBCHEM_ATOM_DEF_STEREO_COUNT>
0

> <PUBCHEM_ATOM_UDEF_STEREO_COUNT>
0

> <PUBCHEM_BOND_DEF_STEREO_COUNT>
2

> <PUBCHEM_BOND_UDEF_STEREO_COUNT>
0

> <PUBCHEM_ISOTOPIC_ATOM_COUNT>
0

> <PUBCHEM_COMPONENT_COUNT>
1

> <PUBCHEM_CACTVS_TAUTO_COUNT>
1

> <PUBCHEM_CONFORMER_ID>
0051E2AA00000001

> <PUBCHEM_MMFF94_ENERGY>
13.6041

> <PUBCHEM_FEATURE_SELFOVERLAP>
10.149

> <PUBCHEM_SHAPE_FINGERPRINT>
11112662 9 17125973812967289249
11370993 70 17897701344773091822
121448 382 18338791338215055184
12539773 59 17983263024685894367
12788726 201 18059848412308477113
128993 33 18192447289397337814
13583140 156 17686074794591845249
14123250 116 18412827971119346792
14251740 79 18338811078016369390
17859628 37 15821282002530906561
20600515 1 17756702297236403764
20645476 183 18199475359048440001
21141583 151 18049723215712144590
22907989 373 17902259997887692740
23419403 2 17042889560153270138
23598291 2 17981041908245210572
35225 105 17686952440666035653
3524813 1 17613990116046588642
460360 51 17821446855619667026
469060 322 17024604509969027875
6438718 38 17701285687130508794

> <PUBCHEM_SHAPE_MULTIPOLES>
465.7
6.33
4.58
2.28
6.23
0.29
0.32
-2.27
1.99
-2.11
-2.27
-1
-0.2
-0.94

> <PUBCHEM_SHAPE_SELFOVERLAP>
859.441

> <PUBCHEM_SHAPE_VOLUME>
294

> <PUBCHEM_COORDINATE_TYPE>
2
5
10

$$$$
