23874497
  -OEChem-02172602293D

 48 48  0     0  0  0  0  0  0999 V2000
   -1.3421   -2.9015   -0.6922 O   0  0  0  0  0  0  0  0  0  0  0  0
   -1.8550    1.8538   -0.5371 O   0  0  0  0  0  0  0  0  0  0  0  0
    0.4982    2.9863   -1.7375 O   0  0  0  0  0  0  0  0  0  0  0  0
    1.7202    2.6554    0.1504 O   0  0  0  0  0  0  0  0  0  0  0  0
    2.6492   -0.1043   -0.8524 C   0  0  0  0  0  0  0  0  0  0  0  0
    3.3681   -0.3611    0.4769 C   0  0  0  0  0  0  0  0  0  0  0  0
    1.1487   -0.2301   -0.7679 C   0  0  0  0  0  0  0  0  0  0  0  0
    4.8833   -0.1544    0.3885 C   0  0  0  0  0  0  0  0  0  0  0  0
    0.3320    0.8980   -0.6916 C   0  0  0  0  0  0  0  0  0  0  0  0
   -1.6215   -0.5212   -0.6141 C   0  0  0  0  0  0  0  0  0  0  0  0
    5.5547   -0.3958    1.7410 C   0  0  0  0  0  0  0  0  0  0  0  0
    0.5803   -1.5040   -0.7671 C   0  0  0  0  0  0  0  0  0  0  0  0
   -1.0530    0.7525   -0.6147 C   0  0  0  0  0  0  0  0  0  0  0  0
   -0.8048   -1.6495   -0.6902 C   0  0  0  0  0  0  0  0  0  0  0  0
   -3.1059   -0.6798   -0.5296 C   0  0  0  0  0  0  0  0  0  0  0  0
    7.0542   -0.1546    1.6693 C   0  0  0  0  0  0  0  0  0  0  0  0
    0.9236    2.2321   -0.6895 C   0  0  0  0  0  0  0  0  0  0  0  0
   -3.6283   -0.5550    0.8793 C   0  0  0  0  0  0  0  0  0  0  0  0
   -4.5784    0.2802    1.3413 C   0  0  0  0  0  0  0  0  0  0  0  0
   -0.4325   -3.9969   -0.7729 C   0  0  0  0  0  0  0  0  0  0  0  0
   -5.3086    1.3038    0.5188 C   0  0  0  0  0  0  0  0  0  0  0  0
   -4.9825    0.2463    2.7914 C   0  0  0  0  0  0  0  0  0  0  0  0
    3.0115   -0.8289   -1.5952 H   0  0  0  0  0  0  0  0  0  0  0  0
    2.9488    0.8666   -1.2621 H   0  0  0  0  0  0  0  0  0  0  0  0
    3.1611   -1.3843    0.8154 H   0  0  0  0  0  0  0  0  0  0  0  0
    2.9590    0.3073    1.2452 H   0  0  0  0  0  0  0  0  0  0  0  0
    5.0924    0.8679    0.0510 H   0  0  0  0  0  0  0  0  0  0  0  0
    5.3036   -0.8358   -0.3610 H   0  0  0  0  0  0  0  0  0  0  0  0
    5.3697   -1.4250    2.0700 H   0  0  0  0  0  0  0  0  0  0  0  0
    5.1211    0.2696    2.4967 H   0  0  0  0  0  0  0  0  0  0  0  0
    1.2657   -2.3427   -0.8282 H   0  0  0  0  0  0  0  0  0  0  0  0
   -3.4142   -1.6613   -0.9112 H   0  0  0  0  0  0  0  0  0  0  0  0
   -3.5752    0.0273   -1.2201 H   0  0  0  0  0  0  0  0  0  0  0  0
    7.2721    0.8772    1.3757 H   0  0  0  0  0  0  0  0  0  0  0  0
    7.5142   -0.3342    2.6461 H   0  0  0  0  0  0  0  0  0  0  0  0
    7.5248   -0.8254    0.9435 H   0  0  0  0  0  0  0  0  0  0  0  0
   -3.1841   -1.2567    1.5854 H   0  0  0  0  0  0  0  0  0  0  0  0
   -1.3268    2.6677   -0.5263 H   0  0  0  0  0  0  0  0  0  0  0  0
    0.1222   -3.9934   -1.7174 H   0  0  0  0  0  0  0  0  0  0  0  0
    0.2273   -4.0401    0.1005 H   0  0  0  0  0  0  0  0  0  0  0  0
   -1.0317   -4.9134   -0.7618 H   0  0  0  0  0  0  0  0  0  0  0  0
   -6.3856    1.1070    0.5471 H   0  0  0  0  0  0  0  0  0  0  0  0
   -5.1325    2.3052    0.9260 H   0  0  0  0  0  0  0  0  0  0  0  0
   -5.0114    1.3251   -0.5307 H   0  0  0  0  0  0  0  0  0  0  0  0
   -4.7982    1.2192    3.2589 H   0  0  0  0  0  0  0  0  0  0  0  0
   -6.0485    0.0129    2.8822 H   0  0  0  0  0  0  0  0  0  0  0  0
   -4.4285   -0.5062    3.3625 H   0  0  0  0  0  0  0  0  0  0  0  0
    0.8997    3.8813   -1.7300 H   0  0  0  0  0  0  0  0  0  0  0  0
  1 14  1  0  0  0  0
  1 20  1  0  0  0  0
  2 13  1  0  0  0  0
  2 38  1  0  0  0  0
  3 17  1  0  0  0  0
  3 48  1  0  0  0  0
  4 17  2  0  0  0  0
  5  6  1  0  0  0  0
  5  7  1  0  0  0  0
  5 23  1  0  0  0  0
  5 24  1  0  0  0  0
  6  8  1  0  0  0  0
  6 25  1  0  0  0  0
  6 26  1  0  0  0  0
  7  9  1  0  0  0  0
  7 12  2  0  0  0  0
  8 11  1  0  0  0  0
  8 27  1  0  0  0  0
  8 28  1  0  0  0  0
  9 13  2  0  0  0  0
  9 17  1  0  0  0  0
 10 13  1  0  0  0  0
 10 14  2  0  0  0  0
 10 15  1  0  0  0  0
 11 16  1  0  0  0  0
 11 29  1  0  0  0  0
 11 30  1  0  0  0  0
 12 14  1  0  0  0  0
 12 31  1  0  0  0  0
 15 18  1  0  0  0  0
 15 32  1  0  0  0  0
 15 33  1  0  0  0  0
 16 34  1  0  0  0  0
 16 35  1  0  0  0  0
 16 36  1  0  0  0  0
 18 19  2  0  0  0  0
 18 37  1  0  0  0  0
 19 21  1  0  0  0  0
 19 22  1  0  0  0  0
 20 39  1  0  0  0  0
 20 40  1  0  0  0  0
 20 41  1  0  0  0  0
 21 42  1  0  0  0  0
 21 43  1  0  0  0  0
 21 44  1  0  0  0  0
 22 45  1  0  0  0  0
 22 46  1  0  0  0  0
 22 47  1  0  0  0  0
M  END
> <PUBCHEM_COMPOUND_CID>
23874497

> <PUBCHEM_CONFORMER_RMSD>
1

> <PUBCHEM_CONFORMER_DIVERSEORDER>
2
36
38
41
25
46
45
51
21
47
33
1
16
54
30
26
4
56
9
27
50
44
22
49
48
35
10
14
20
34
31
19
55
15
24
32
12
43
42
11
40
18
17
8
6
37
3
29
13
5
53
23
52
39
28
7

> <PUBCHEM_MMFF94_PARTIAL_CHARGES>
22
1 -0.36
10 -0.14
12 -0.15
13 0.08
14 0.08
15 0.28
17 0.63
18 -0.29
19 -0.28
2 -0.53
20 0.28
21 0.14
22 0.14
3 -0.65
31 0.15
37 0.15
38 0.45
4 -0.57
48 0.5
5 0.14
7 -0.14
9 0.09

> <PUBCHEM_EFFECTIVE_ROTOR_COUNT>
8

> <PUBCHEM_PHARMACOPHORE_FEATURES>
9
1 1 acceptor
1 16 hydrophobe
1 2 donor
1 3 acceptor
1 4 acceptor
3 19 21 22 hydrophobe
3 3 4 17 anion
4 5 6 8 11 hydrophobe
6 7 9 10 12 13 14 rings

> <PUBCHEM_HEAVY_ATOM_COUNT>
22

> <PUBCHEM_ATOM_DEF_STEREO_COUNT>
0

> <PUBCHEM_ATOM_UDEF_STEREO_COUNT>
0

> <PUBCHEM_BOND_DEF_STEREO_COUNT>
0

> <PUBCHEM_BOND_UDEF_STEREO_COUNT>
0

> <PUBCHEM_ISOTOPIC_ATOM_COUNT>
0

> <PUBCHEM_COMPONENT_COUNT>
1

> <PUBCHEM_CACTVS_TAUTO_COUNT>
13

> <PUBCHEM_CONFORMER_ID>
016C4BC100000002

> <PUBCHEM_MMFF94_ENERGY>
56.8127

> <PUBCHEM_FEATURE_SELFOVERLAP>
45.728

> <PUBCHEM_SHAPE_FINGERPRINT>
10042902 136 14707503554396734627
10493431 412 18272369762997019723
10693767 8 11675170318525217217
11796584 16 16153707605106482411
12035758 1 18411141324577325416
12422481 6 18337677386484964040
12633257 1 18272080634947386816
12644460 14 17970080026340263980
13140716 1 18266462198779643943
13257819 101 14764349301748289456
13540713 5 18050007984596462494
14022347 108 18190766192333287094
14178342 30 18123205501826219025
14466204 15 18339645525585044265
14767858 380 9511460022209074208
14790565 3 18266766673312065101
15163728 17 13757812402775354442
15209294 21 17846782884087056915
15475509 35 16950854698826954513
16110190 28 18337949099739567064
16945 1 18411983589170686383
17980427 23 17774998041773519596
20600515 1 18343587373549081140
20739085 24 18123214332225907343
20775438 99 11605397565547439440
21637258 2 15936126387014820170
22182313 1 18194126209298625367
22224240 67 18201717336762010179
23366157 5 17682111416029723460
23379529 103 12398026655027508073
23559900 14 17559980799715624204
25147074 1 18123190370418630175
2748010 2 18122631556713958831
2838139 119 15195561290935608834
3117164 225 18270676601411525920
33382 64 15574713573760023672
5104073 3 18267307710325777408
5486654 36 17969782071774693802
56616090 284 8358251570858169786
58807428 26 18341337721013873903
69474 34 18412258445814153704

> <PUBCHEM_SHAPE_MULTIPOLES>
429.27
11.76
3.02
1.77
11.09
1.7
-1.17
-1.92
-11.87
-0.8
1.66
-0.48
-0.41
-0.78

> <PUBCHEM_SHAPE_SELFOVERLAP>
871.49

> <PUBCHEM_SHAPE_VOLUME>
251.8

> <PUBCHEM_COORDINATE_TYPE>
2
5
10

$$$$
