102553048
  -OEChem-02172602523D

 40 44  0     1  0  0  0  0  0999 V2000
   -4.3709    1.0793   -0.6450 O   0  0  0  0  0  0  0  0  0  0  0  0
   -1.7736   -2.6101    0.5095 O   0  0  0  0  0  0  0  0  0  0  0  0
   -2.0736    2.0341    0.8067 O   0  0  0  0  0  0  0  0  0  0  0  0
    5.0643   -2.0691   -0.6055 O   0  0  0  0  0  0  0  0  0  0  0  0
    4.7685    2.5189   -0.3104 O   0  0  0  0  0  0  0  0  0  0  0  0
   -1.9720   -0.2963    0.7427 N   0  0  0  0  0  0  0  0  0  0  0  0
    4.9111    0.2245   -0.4564 N   0  0  0  0  0  0  0  0  0  0  0  0
   -4.2092   -0.3013   -0.2785 C   0  0  2  0  0  0  0  0  0  0  0  0
   -5.6108   -0.8746   -0.1603 C   0  0  0  0  0  0  0  0  0  0  0  0
   -3.4039   -0.4031    1.0021 C   0  0  0  0  0  0  0  0  0  0  0  0
   -6.3431   -0.1002   -1.2274 C   0  0  0  0  0  0  0  0  0  0  0  0
   -5.7176    1.2728   -1.1024 C   0  0  0  0  0  0  0  0  0  0  0  0
    0.7822   -0.0866    0.2427 C   0  0  0  0  0  0  0  0  0  0  0  0
    0.1884   -1.3565    0.2768 C   0  0  0  0  0  0  0  0  0  0  0  0
    0.0313    1.0821    0.4332 C   0  0  0  0  0  0  0  0  0  0  0  0
    2.1780    0.0185    0.0065 C   0  0  0  0  0  0  0  0  0  0  0  0
   -1.2651   -1.4910    0.5213 C   0  0  0  0  0  0  0  0  0  0  0  0
   -1.4254    0.9974    0.6805 C   0  0  0  0  0  0  0  0  0  0  0  0
    2.9295   -1.1534   -0.1865 C   0  0  0  0  0  0  0  0  0  0  0  0
    2.7719    1.2920   -0.0292 C   0  0  0  0  0  0  0  0  0  0  0  0
    0.9546   -2.5117    0.0816 C   0  0  0  0  0  0  0  0  0  0  0  0
    0.6418    2.3412    0.3931 C   0  0  0  0  0  0  0  0  0  0  0  0
    2.3229   -2.4109   -0.1495 C   0  0  0  0  0  0  0  0  0  0  0  0
    2.0097    2.4465    0.1627 C   0  0  0  0  0  0  0  0  0  0  0  0
    4.3853   -1.0617   -0.4340 C   0  0  0  0  0  0  0  0  0  0  0  0
    4.2254    1.4194   -0.2743 C   0  0  0  0  0  0  0  0  0  0  0  0
   -3.6874   -0.7933   -1.1096 H   0  0  0  0  0  0  0  0  0  0  0  0
   -6.0453   -0.6491    0.8213 H   0  0  0  0  0  0  0  0  0  0  0  0
   -5.6422   -1.9574   -0.3096 H   0  0  0  0  0  0  0  0  0  0  0  0
   -3.5977   -1.3646    1.4915 H   0  0  0  0  0  0  0  0  0  0  0  0
   -3.6963    0.3884    1.7027 H   0  0  0  0  0  0  0  0  0  0  0  0
   -6.1205   -0.5246   -2.2136 H   0  0  0  0  0  0  0  0  0  0  0  0
   -7.4283   -0.0884   -1.0970 H   0  0  0  0  0  0  0  0  0  0  0  0
   -5.7102    1.8188   -2.0499 H   0  0  0  0  0  0  0  0  0  0  0  0
   -6.2386    1.8789   -0.3537 H   0  0  0  0  0  0  0  0  0  0  0  0
    0.5045   -3.5006    0.1066 H   0  0  0  0  0  0  0  0  0  0  0  0
    0.0690    3.2530    0.5400 H   0  0  0  0  0  0  0  0  0  0  0  0
    2.8969   -3.3215   -0.2978 H   0  0  0  0  0  0  0  0  0  0  0  0
    2.4614    3.4344    0.1364 H   0  0  0  0  0  0  0  0  0  0  0  0
    5.9105    0.2998   -0.6256 H   0  0  0  0  0  0  0  0  0  0  0  0
  1  8  1  0  0  0  0
  1 12  1  0  0  0  0
  2 17  2  0  0  0  0
  3 18  2  0  0  0  0
  4 25  2  0  0  0  0
  5 26  2  0  0  0  0
  6 10  1  0  0  0  0
  6 17  1  0  0  0  0
  6 18  1  0  0  0  0
  7 25  1  0  0  0  0
  7 26  1  0  0  0  0
  7 40  1  0  0  0  0
  8  9  1  0  0  0  0
  8 10  1  0  0  0  0
  8 27  1  0  0  0  0
  9 11  1  0  0  0  0
  9 28  1  0  0  0  0
  9 29  1  0  0  0  0
 10 30  1  0  0  0  0
 10 31  1  0  0  0  0
 11 12  1  0  0  0  0
 11 32  1  0  0  0  0
 11 33  1  0  0  0  0
 12 34  1  0  0  0  0
 12 35  1  0  0  0  0
 13 14  2  0  0  0  0
 13 15  1  0  0  0  0
 13 16  1  0  0  0  0
 14 17  1  0  0  0  0
 14 21  1  0  0  0  0
 15 18  1  0  0  0  0
 15 22  2  0  0  0  0
 16 19  2  0  0  0  0
 16 20  1  0  0  0  0
 19 23  1  0  0  0  0
 19 25  1  0  0  0  0
 20 24  2  0  0  0  0
 20 26  1  0  0  0  0
 21 23  2  0  0  0  0
 21 36  1  0  0  0  0
 22 24  1  0  0  0  0
 22 37  1  0  0  0  0
 23 38  1  0  0  0  0
 24 39  1  0  0  0  0
M  END
> <PUBCHEM_COMPOUND_CID>
102553048

> <PUBCHEM_CONFORMER_RMSD>
0.8

> <PUBCHEM_CONFORMER_DIVERSEORDER>
1
3
2

> <PUBCHEM_MMFF94_PARTIAL_CHARGES>
27
1 -0.56
10 0.3
12 0.28
14 0.09
15 0.09
17 0.54
18 0.54
19 0.09
2 -0.57
20 0.09
21 -0.15
22 -0.15
23 -0.15
24 -0.15
25 0.54
26 0.54
3 -0.57
36 0.15
37 0.15
38 0.15
39 0.15
4 -0.57
40 0.37
5 -0.57
6 -0.42
7 -0.49
8 0.28

> <PUBCHEM_EFFECTIVE_ROTOR_COUNT>
3.4

> <PUBCHEM_PHARMACOPHORE_FEATURES>
11
1 1 acceptor
1 2 acceptor
1 3 acceptor
1 4 acceptor
1 5 acceptor
1 7 donor
5 1 8 9 11 12 rings
6 13 14 16 19 21 23 rings
6 13 15 16 20 22 24 rings
6 6 13 14 15 17 18 rings
6 7 16 19 20 25 26 rings

> <PUBCHEM_HEAVY_ATOM_COUNT>
26

> <PUBCHEM_ATOM_DEF_STEREO_COUNT>
0

> <PUBCHEM_ATOM_UDEF_STEREO_COUNT>
1

> <PUBCHEM_BOND_DEF_STEREO_COUNT>
0

> <PUBCHEM_BOND_UDEF_STEREO_COUNT>
0

> <PUBCHEM_ISOTOPIC_ATOM_COUNT>
0

> <PUBCHEM_COMPONENT_COUNT>
1

> <PUBCHEM_CACTVS_TAUTO_COUNT>
2

> <PUBCHEM_CONFORMER_ID>
061CD5D800000001

> <PUBCHEM_MMFF94_ENERGY>
71.0682

> <PUBCHEM_FEATURE_SELFOVERLAP>
55.952

> <PUBCHEM_SHAPE_FINGERPRINT>
10411042 1 17977946783361934242
10693767 8 18130498652542257983
10967382 1 18411710898050766650
11135609 187 18411699928130137257
11471102 20 18411420622242980698
12011746 2 18410016524472299886
12236239 1 17704073988942602409
12403259 415 18186242827471693475
12403260 363 18340207371699572378
12645989 146 18127700318694336926
12730499 353 18333452045479033259
12788726 201 17489312966858572993
12838862 33 18340193194588015216
13140716 1 16036342817395381330
13402501 40 18260827103256459253
13533116 47 18202282511213098184
13862211 1 18340206276615319698
13944108 23 16387306251216548669
14294032 229 16127832743190646561
14528608 73 18410854365217580103
14790565 3 18268160781310393385
14931854 50 18339939151387751884
15183329 4 18340478960305581053
15196674 1 18411142437005458097
15475509 35 13758086159991565164
17349148 13 17703517648648561115
18608769 82 18189338026167272339
18681886 176 18201147793680660506
19591789 44 18339369569761991530
200 152 18060136527256713001
20028762 73 18130505228511799374
20554085 129 17916290827442493776
20612939 158 18411418402024502445
20645477 70 18411418401496929766
20715895 44 18260824899532158340
20775438 99 17339523362612560519
21029758 11 18342740693397251857
21033648 29 18114457950845936113
21267235 1 18341063934255177658
21279426 13 18409167684247150959
21285901 2 18114457873061778045
21521239 73 18201429312028829671
21859007 373 17896299373439120276
221357 26 18410847747169070077
22182313 1 18264790906756476083
22289505 5 18337103484364905445
22393880 68 18335128783721238055
23402539 116 18201440216676292323
23559900 14 18412260661779505608
25147074 1 17988092093120133729
266924 87 18410854322548092489
2871803 45 18410294683660365832
29717793 49 17917996035846022925
3004659 81 18261391126998923642
335352 9 18409731773042275446
3380486 145 18048055226930382115
34934 24 18339077202626976866
4072396 5 18335968827578850754
4280585 95 17336757712315989598
46194498 28 17895192259550425645
484989 97 18336838579499298746
495365 180 17916294108021625288
5104073 3 18410583885293773074
5283173 99 18261106314822646389
59755656 215 18410014343093156748
6669772 16 17629463461479948249

> <PUBCHEM_SHAPE_MULTIPOLES>
495.76
12.28
2.87
0.89
11.52
0.08
-0.04
-1.05
-5.06
-2.48
0.13
0.79
-0.06
0.56

> <PUBCHEM_SHAPE_SELFOVERLAP>
1130.491

> <PUBCHEM_SHAPE_VOLUME>
255.7

> <PUBCHEM_COORDINATE_TYPE>
2
5
10

$$$$
