102553046
  -OEChem-02172602523D

 46 47  0     1  0  0  0  0  0999 V2000
    5.6456   -1.8795    1.7400 Br  0  0  0  0  0  0  0  0  0  0  0  0
    0.8891    0.8595   -1.6370 S   0  0  0  0  0  0  0  0  0  0  0  0
    1.4137    2.0934   -2.1804 O   0  0  0  0  0  0  0  0  0  0  0  0
    0.2997   -0.1439   -2.4967 O   0  0  0  0  0  0  0  0  0  0  0  0
   -2.6725   -0.1868    1.9203 O   0  0  0  0  0  0  0  0  0  0  0  0
   -0.2132    1.2284   -0.3776 N   0  0  2  0  0  0  0  0  0  0  0  0
   -3.3941   -0.5471   -0.2636 N   0  0  0  0  0  0  0  0  0  0  0  0
   -2.5593    1.6139    0.3530 C   0  0  2  0  0  0  0  0  0  0  0  0
   -1.5845    1.6207   -0.8243 C   0  0  0  0  0  0  0  0  0  0  0  0
   -2.0394    2.4174    1.5469 C   0  0  0  0  0  0  0  0  0  0  0  0
   -0.5988    2.0555    1.9052 C   0  0  0  0  0  0  0  0  0  0  0  0
    0.3123    2.1294    0.6869 C   0  0  0  0  0  0  0  0  0  0  0  0
   -2.8793    0.2087    0.7759 C   0  0  0  0  0  0  0  0  0  0  0  0
    2.1746    0.0894   -0.7043 C   0  0  0  0  0  0  0  0  0  0  0  0
   -3.7622   -1.9375   -0.1234 C   0  0  0  0  0  0  0  0  0  0  0  0
    1.9599   -1.1156   -0.0349 C   0  0  0  0  0  0  0  0  0  0  0  0
    3.4240    0.7068   -0.6455 C   0  0  0  0  0  0  0  0  0  0  0  0
   -3.5394   -2.6790   -1.4351 C   0  0  0  0  0  0  0  0  0  0  0  0
   -5.2070   -2.0636    0.3436 C   0  0  0  0  0  0  0  0  0  0  0  0
    2.9946   -1.7028    0.6932 C   0  0  0  0  0  0  0  0  0  0  0  0
    0.6336   -1.8017   -0.0774 C   0  0  0  0  0  0  0  0  0  0  0  0
    4.4587    0.1197    0.0828 C   0  0  0  0  0  0  0  0  0  0  0  0
    4.2439   -1.0852    0.7521 C   0  0  0  0  0  0  0  0  0  0  0  0
   -3.5071    2.0628    0.0265 H   0  0  0  0  0  0  0  0  0  0  0  0
   -1.9094    0.9595   -1.6322 H   0  0  0  0  0  0  0  0  0  0  0  0
   -1.5332    2.6336   -1.2443 H   0  0  0  0  0  0  0  0  0  0  0  0
   -2.6830    2.2934    2.4261 H   0  0  0  0  0  0  0  0  0  0  0  0
   -2.0741    3.4841    1.2891 H   0  0  0  0  0  0  0  0  0  0  0  0
   -0.2343    2.7445    2.6758 H   0  0  0  0  0  0  0  0  0  0  0  0
   -0.5500    1.0499    2.3375 H   0  0  0  0  0  0  0  0  0  0  0  0
    0.3627    3.1573    0.3088 H   0  0  0  0  0  0  0  0  0  0  0  0
    1.3157    1.8380    1.0040 H   0  0  0  0  0  0  0  0  0  0  0  0
   -3.6391   -0.0887   -1.1361 H   0  0  0  0  0  0  0  0  0  0  0  0
   -3.1142   -2.3834    0.6409 H   0  0  0  0  0  0  0  0  0  0  0  0
    3.6233    1.6446   -1.1553 H   0  0  0  0  0  0  0  0  0  0  0  0
   -4.1613   -2.2660   -2.2372 H   0  0  0  0  0  0  0  0  0  0  0  0
   -2.4942   -2.5968   -1.7535 H   0  0  0  0  0  0  0  0  0  0  0  0
   -3.7792   -3.7421   -1.3300 H   0  0  0  0  0  0  0  0  0  0  0  0
   -5.8976   -1.6112   -0.3769 H   0  0  0  0  0  0  0  0  0  0  0  0
   -5.3543   -1.5557    1.3030 H   0  0  0  0  0  0  0  0  0  0  0  0
   -5.4868   -3.1144    0.4718 H   0  0  0  0  0  0  0  0  0  0  0  0
    2.8294   -2.6423    1.2158 H   0  0  0  0  0  0  0  0  0  0  0  0
   -0.1692   -1.1755    0.3145 H   0  0  0  0  0  0  0  0  0  0  0  0
    0.3949   -2.1476   -1.0865 H   0  0  0  0  0  0  0  0  0  0  0  0
    0.6386   -2.6995    0.5529 H   0  0  0  0  0  0  0  0  0  0  0  0
    5.4262    0.6137    0.1190 H   0  0  0  0  0  0  0  0  0  0  0  0
  1 23  1  0  0  0  0
  2  3  2  0  0  0  0
  2  4  2  0  0  0  0
  2  6  1  0  0  0  0
  2 14  1  0  0  0  0
  5 13  2  0  0  0  0
  6  9  1  0  0  0  0
  6 12  1  0  0  0  0
  7 13  1  0  0  0  0
  7 15  1  0  0  0  0
  7 33  1  0  0  0  0
  8  9  1  0  0  0  0
  8 10  1  0  0  0  0
  8 13  1  0  0  0  0
  8 24  1  0  0  0  0
  9 25  1  0  0  0  0
  9 26  1  0  0  0  0
 10 11  1  0  0  0  0
 10 27  1  0  0  0  0
 10 28  1  0  0  0  0
 11 12  1  0  0  0  0
 11 29  1  0  0  0  0
 11 30  1  0  0  0  0
 12 31  1  0  0  0  0
 12 32  1  0  0  0  0
 14 16  2  0  0  0  0
 14 17  1  0  0  0  0
 15 18  1  0  0  0  0
 15 19  1  0  0  0  0
 15 34  1  0  0  0  0
 16 20  1  0  0  0  0
 16 21  1  0  0  0  0
 17 22  2  0  0  0  0
 17 35  1  0  0  0  0
 18 36  1  0  0  0  0
 18 37  1  0  0  0  0
 18 38  1  0  0  0  0
 19 39  1  0  0  0  0
 19 40  1  0  0  0  0
 19 41  1  0  0  0  0
 20 23  2  0  0  0  0
 20 42  1  0  0  0  0
 21 43  1  0  0  0  0
 21 44  1  0  0  0  0
 21 45  1  0  0  0  0
 22 23  1  0  0  0  0
 22 46  1  0  0  0  0
M  END
> <PUBCHEM_COMPOUND_CID>
102553046

> <PUBCHEM_CONFORMER_RMSD>
0.8

> <PUBCHEM_CONFORMER_DIVERSEORDER>
1
133
88
126
26
78
95
114
22
94
110
80
89
41
47
57
75
140
27
20
62
28
44
2
120
81
90
45
106
72
48
35
86
10
121
123
21
54
112
7
71
104
129
111
24
83
61
91
63
87
66
51
23
6
102
12
18
92
8
60
9
93
33
137
139
5
125
97
59
131
109
74
127
108
99
135
130
36
64
70
98
46
30
100
13
16
52
79
138
56
53
132
118
136
134
55
68
117
19
40
119
128
124
77
42
85
4
43
122
116
96
31
17
69
84
37
25
107
103
58
29
3
32
105
49
115
11
73
67
76
113
101
82
50
34
38
15
39
14
65

> <PUBCHEM_MMFF94_PARTIAL_CHARGES>
23
1 -0.11
12 0.36
13 0.57
14 -0.01
15 0.3
16 -0.14
17 -0.15
2 1.45
20 -0.15
21 0.14
22 -0.15
23 0.11
3 -0.65
33 0.37
35 0.15
4 -0.65
42 0.15
46 0.15
5 -0.57
6 -0.85
7 -0.73
8 0.06
9 0.36

> <PUBCHEM_EFFECTIVE_ROTOR_COUNT>
6.2

> <PUBCHEM_PHARMACOPHORE_FEATURES>
8
1 1 hydrophobe
1 3 acceptor
1 4 acceptor
1 5 acceptor
1 7 donor
3 15 18 19 hydrophobe
6 14 16 17 20 22 23 rings
6 6 8 9 10 11 12 rings

> <PUBCHEM_HEAVY_ATOM_COUNT>
23

> <PUBCHEM_ATOM_DEF_STEREO_COUNT>
0

> <PUBCHEM_ATOM_UDEF_STEREO_COUNT>
1

> <PUBCHEM_BOND_DEF_STEREO_COUNT>
0

> <PUBCHEM_BOND_UDEF_STEREO_COUNT>
0

> <PUBCHEM_ISOTOPIC_ATOM_COUNT>
0

> <PUBCHEM_COMPONENT_COUNT>
1

> <PUBCHEM_CACTVS_TAUTO_COUNT>
6

> <PUBCHEM_CONFORMER_ID>
061CD5D600000001

> <PUBCHEM_MMFF94_ENERGY>
38.8982

> <PUBCHEM_FEATURE_SELFOVERLAP>
40.614

> <PUBCHEM_SHAPE_FINGERPRINT>
11552529 35 18271237210428480794
11578080 2 18264751294547879653
12166972 35 18113898311911567999
12553582 1 17916042307464417047
12596599 1 18193844743202096270
12596602 18 18339066105011824562
12633257 1 18060428997001470929
12788726 201 18127998445221408017
12824470 246 18408890646114283065
13004483 165 18411976984033022571
13009979 54 18409736140464904490
13083527 12 18129659832697083201
13134695 92 17023199231414747644
13544653 18 18260269659007772090
13583140 156 17274240752876601538
14081887 123 18060139795220390763
14178342 30 18198352762028918113
14251757 17 16515676801584446283
14341114 328 18201728327446261848
14787075 74 18126568049123555708
15415430 10 18187361008932213906
17349148 13 18259708895509540682
17357779 13 16371012854332518532
192875 21 17967818262080677859
19433438 48 18189904123323756712
20511986 3 18261100834180353289
20626108 58 18113892784124783705
21069387 34 17676214584302370121
21304303 282 14275399693711767292
21421861 104 17914355695313724089
21452121 71 18269835479231836947
23419403 2 18120903296165227468
23557571 272 17631469924324146991
23559900 14 17629500604689069620
2637199 183 9367349240632455075
339767 52 18412819192670794263
3797600 57 18060143163028878920
392239 28 18201431506640820378
4098825 35 17458623471618902023
439807 62 18043534031160239619
46194498 28 16154831434982045959
463206 1 18266741475197810099
5161694 15 14562538400524296205
57100710 210 18410008827653567765

> <PUBCHEM_SHAPE_MULTIPOLES>
455.55
9.67
3.05
1.95
4.32
0.21
0.38
8.31
-3.64
-2.43
-0.34
0.25
-0.64
-2.23

> <PUBCHEM_SHAPE_SELFOVERLAP>
912.741

> <PUBCHEM_SHAPE_VOLUME>
273.2

> <PUBCHEM_COORDINATE_TYPE>
2
5
10

$$$$
