102553050
  -OEChem-02172602523D

 45 47  0     1  0  0  0  0  0999 V2000
   -0.6162   -4.0386    1.4919 S   0  0  0  0  0  0  0  0  0  0  0  0
    6.0917    1.6716    0.0886 O   0  0  0  0  0  0  0  0  0  0  0  0
   -0.6536   -1.9543   -0.1421 N   0  0  0  0  0  0  0  0  0  0  0  0
    0.6132   -1.6775    0.2688 N   0  0  0  0  0  0  0  0  0  0  0  0
   -2.5386   -3.2509   -0.1812 N   0  0  0  0  0  0  0  0  0  0  0  0
   -1.1621   -1.0216   -1.1452 C   0  0  2  0  0  0  0  0  0  0  0  0
    0.0731   -0.2078   -1.5139 C   0  0  0  0  0  0  0  0  0  0  0  0
   -2.2370   -0.1544   -0.5764 C   0  0  0  0  0  0  0  0  0  0  0  0
    1.0377   -0.6849   -0.4539 C   0  0  0  0  0  0  0  0  0  0  0  0
    2.3469   -0.0737   -0.3126 C   0  0  0  0  0  0  0  0  0  0  0  0
   -1.9673    0.6610    0.5228 C   0  0  0  0  0  0  0  0  0  0  0  0
   -3.5111   -0.1606   -1.1443 C   0  0  0  0  0  0  0  0  0  0  0  0
   -1.2917   -3.0372    0.3431 C   0  0  0  0  0  0  0  0  0  0  0  0
   -4.2455    1.4641    0.4859 C   0  0  0  0  0  0  0  0  0  0  0  0
   -2.9715    1.4703    1.0539 C   0  0  0  0  0  0  0  0  0  0  0  0
   -4.5153    0.6486   -0.6132 C   0  0  0  0  0  0  0  0  0  0  0  0
    2.7263    0.9664   -1.1611 C   0  0  0  0  0  0  0  0  0  0  0  0
    3.2259   -0.5272    0.6710 C   0  0  0  0  0  0  0  0  0  0  0  0
   -5.3202    2.3268    1.0556 C   0  0  0  0  0  0  0  0  0  0  0  0
    3.9846    1.5528   -1.0263 C   0  0  0  0  0  0  0  0  0  0  0  0
    4.4843    0.0591    0.8059 C   0  0  0  0  0  0  0  0  0  0  0  0
    4.8636    1.0991   -0.0428 C   0  0  0  0  0  0  0  0  0  0  0  0
   -5.3576    3.7101    0.4108 C   0  0  0  0  0  0  0  0  0  0  0  0
    6.9402    1.1590    1.1148 C   0  0  0  0  0  0  0  0  0  0  0  0
   -1.5162   -1.5796   -2.0204 H   0  0  0  0  0  0  0  0  0  0  0  0
   -0.0763    0.8750   -1.5024 H   0  0  0  0  0  0  0  0  0  0  0  0
    0.4567   -0.5146   -2.4937 H   0  0  0  0  0  0  0  0  0  0  0  0
   -0.9869    0.6850    0.9892 H   0  0  0  0  0  0  0  0  0  0  0  0
   -3.7364   -0.7844   -2.0052 H   0  0  0  0  0  0  0  0  0  0  0  0
   -2.7488    2.1014    1.9101 H   0  0  0  0  0  0  0  0  0  0  0  0
   -5.5031    0.6368   -1.0663 H   0  0  0  0  0  0  0  0  0  0  0  0
    2.0775    1.3456   -1.9442 H   0  0  0  0  0  0  0  0  0  0  0  0
    2.9543   -1.3356    1.3449 H   0  0  0  0  0  0  0  0  0  0  0  0
   -6.2960    1.8409    0.9310 H   0  0  0  0  0  0  0  0  0  0  0  0
   -5.1796    2.4340    2.1385 H   0  0  0  0  0  0  0  0  0  0  0  0
    4.2758    2.3616   -1.6910 H   0  0  0  0  0  0  0  0  0  0  0  0
    5.1173   -0.3414    1.5904 H   0  0  0  0  0  0  0  0  0  0  0  0
   -2.9439   -2.7088   -0.9322 H   0  0  0  0  0  0  0  0  0  0  0  0
   -3.0963   -4.0367    0.1374 H   0  0  0  0  0  0  0  0  0  0  0  0
   -4.4107    4.2408    0.5569 H   0  0  0  0  0  0  0  0  0  0  0  0
   -6.1571    4.3120    0.8542 H   0  0  0  0  0  0  0  0  0  0  0  0
   -5.5417    3.6399   -0.6666 H   0  0  0  0  0  0  0  0  0  0  0  0
    7.8744    1.7288    1.0764 H   0  0  0  0  0  0  0  0  0  0  0  0
    7.1983    0.1096    0.9367 H   0  0  0  0  0  0  0  0  0  0  0  0
    6.5098    1.3177    2.1095 H   0  0  0  0  0  0  0  0  0  0  0  0
  1 13  2  0  0  0  0
  2 22  1  0  0  0  0
  2 24  1  0  0  0  0
  3  4  1  0  0  0  0
  3  6  1  0  0  0  0
  3 13  1  0  0  0  0
  4  9  2  0  0  0  0
  5 13  1  0  0  0  0
  5 38  1  0  0  0  0
  5 39  1  0  0  0  0
  6  7  1  0  0  0  0
  6  8  1  0  0  0  0
  6 25  1  0  0  0  0
  7  9  1  0  0  0  0
  7 26  1  0  0  0  0
  7 27  1  0  0  0  0
  8 11  2  0  0  0  0
  8 12  1  0  0  0  0
  9 10  1  0  0  0  0
 10 17  2  0  0  0  0
 10 18  1  0  0  0  0
 11 15  1  0  0  0  0
 11 28  1  0  0  0  0
 12 16  2  0  0  0  0
 12 29  1  0  0  0  0
 14 15  2  0  0  0  0
 14 16  1  0  0  0  0
 14 19  1  0  0  0  0
 15 30  1  0  0  0  0
 16 31  1  0  0  0  0
 17 20  1  0  0  0  0
 17 32  1  0  0  0  0
 18 21  2  0  0  0  0
 18 33  1  0  0  0  0
 19 23  1  0  0  0  0
 19 34  1  0  0  0  0
 19 35  1  0  0  0  0
 20 22  2  0  0  0  0
 20 36  1  0  0  0  0
 21 22  1  0  0  0  0
 21 37  1  0  0  0  0
 23 40  1  0  0  0  0
 23 41  1  0  0  0  0
 23 42  1  0  0  0  0
 24 43  1  0  0  0  0
 24 44  1  0  0  0  0
 24 45  1  0  0  0  0
M  END
> <PUBCHEM_COMPOUND_CID>
102553050

> <PUBCHEM_CONFORMER_RMSD>
0.8

> <PUBCHEM_CONFORMER_DIVERSEORDER>
3
4
8
9
16
13
12
10
11
17
14
15
1
2
7
6
5

> <PUBCHEM_MMFF94_PARTIAL_CHARGES>
33
1 -0.38
10 0.09
11 -0.15
12 -0.15
13 0.5
14 -0.14
15 -0.15
16 -0.15
17 -0.15
18 -0.15
19 0.14
2 -0.36
20 -0.15
21 -0.15
22 0.08
24 0.28
28 0.15
29 0.15
3 -0.3
30 0.15
31 0.15
32 0.15
33 0.15
36 0.15
37 0.15
38 0.37
39 0.37
4 -0.51
5 -0.8
6 0.44
7 0.06
8 -0.14
9 0.3

> <PUBCHEM_EFFECTIVE_ROTOR_COUNT>
5.6

> <PUBCHEM_PHARMACOPHORE_FEATURES>
8
1 1 acceptor
1 2 acceptor
1 23 hydrophobe
1 4 acceptor
1 5 donor
5 3 4 6 7 9 rings
6 10 17 18 20 21 22 rings
6 8 11 12 14 15 16 rings

> <PUBCHEM_HEAVY_ATOM_COUNT>
24

> <PUBCHEM_ATOM_DEF_STEREO_COUNT>
0

> <PUBCHEM_ATOM_UDEF_STEREO_COUNT>
1

> <PUBCHEM_BOND_DEF_STEREO_COUNT>
0

> <PUBCHEM_BOND_UDEF_STEREO_COUNT>
0

> <PUBCHEM_ISOTOPIC_ATOM_COUNT>
0

> <PUBCHEM_COMPONENT_COUNT>
1

> <PUBCHEM_CACTVS_TAUTO_COUNT>
12

> <PUBCHEM_CONFORMER_ID>
061CD5DA00000003

> <PUBCHEM_MMFF94_ENERGY>
79.8296

> <PUBCHEM_FEATURE_SELFOVERLAP>
40.598

> <PUBCHEM_SHAPE_FINGERPRINT>
10291535 26 17917434267140542000
10411042 1 17765147663778535167
10493431 412 18409735041106166509
10498660 4 17489306343744812641
10692045 39 18267300937674502610
11135609 201 18130233658119615441
11315181 36 18116423938013504214
12107183 9 18263636282794004466
12236239 1 18413384333088931700
12390115 104 18336838557892229671
12633257 1 18114174281219993788
12788726 201 17974864061652144519
13540713 5 17388547278953969382
13583140 156 16153695527421062509
13690498 29 11311765156363488545
13782708 43 11891325457588913000
13965767 371 18041279859415915316
14251764 30 8718535121426969201
14251764 38 17985257723726667144
14468879 13 17846506945122971606
14565420 104 18266189327344951833
14576447 43 10303815376380363444
14739800 52 18058993056923532320
15238133 3 18411142446360972396
15342816 4 8646475341081122515
15878777 1 17193130969770352599
17980427 26 18196644099664470839
18222031 100 9150879556246371333
19784866 34 18340207367726637541
204376 136 18334296444449392271
20739085 24 17897177822556423588
21033648 29 18336561420948707997
21401589 2 18201731639008205649
21756936 100 18343016709443992887
21796203 349 16953358111480005178
22950370 63 9295278452750607365
23522609 53 17677066749776946332
23559900 14 18342470222891787918
23569917 315 18408603647837029799
23929065 36 18127112298472762011
270888 7 18200031733876468641
283562 15 18263358260802889347
2838139 119 17917983988721850276
3472631 163 18060138725858547149
351380 3 8286196149842202000
3633792 109 18116410614466225151
394222 165 18054232021230541339
4073 2 18336547222820548858
4340502 62 18191039924074286905
44802255 64 16916786361965273644
46194498 28 14906457975856172765
465052 167 11170211838089369257
474 4 18337677391280961089
484985 159 15213852869386375635
5104073 3 17897152732333484872
58807428 26 18187367584485179923
59682541 52 15912491177943841916
59755656 520 18407759227142862102
633830 44 18269556048707305271
636775 72 18201147875971419976
7288768 16 18334580122691617475
77188 2 17330276581218053475
7808743 9 18413106164804697857
7970288 3 8790592702548619505
9981440 41 18202285826864969502

> <PUBCHEM_SHAPE_MULTIPOLES>
476.95
13.26
3.87
1.31
11.99
3.25
0.05
-15.32
-3.8
-4.54
-1.67
-0.04
0.1
-1.17

> <PUBCHEM_SHAPE_SELFOVERLAP>
1017.836

> <PUBCHEM_SHAPE_VOLUME>
269.4

> <PUBCHEM_COORDINATE_TYPE>
2
5
10

$$$$
