102553047
  -OEChem-02172602523D

 45 47  0     1  0  0  0  0  0999 V2000
   -5.6070   -3.4731    0.1017 Br  0  0  0  0  0  0  0  0  0  0  0  0
   -2.0657    1.8844   -0.4337 S   0  0  0  0  0  0  0  0  0  0  0  0
    5.4289   -0.5682   -0.9495 O   0  0  0  0  0  0  0  0  0  0  0  0
    4.3877    1.3697    0.2842 O   0  0  0  0  0  0  0  0  0  0  0  0
   -2.0104    2.2146   -1.8413 O   0  0  0  0  0  0  0  0  0  0  0  0
   -2.5370    2.8451    0.5402 O   0  0  0  0  0  0  0  0  0  0  0  0
    2.2065    0.5720    0.2923 N   0  0  0  0  0  0  0  0  0  0  0  0
   -0.5348    1.2959    0.0623 N   0  0  0  0  0  0  0  0  0  0  0  0
    1.2046   -0.4497   -0.0332 C   0  0  0  0  0  0  0  0  0  0  0  0
    1.6844    1.7131    1.0457 C   0  0  0  0  0  0  0  0  0  0  0  0
    0.0140    0.1727   -0.7562 C   0  0  0  0  0  0  0  0  0  0  0  0
    0.4982    2.3431    0.3244 C   0  0  0  0  0  0  0  0  0  0  0  0
    4.0288   -0.7393   -0.7119 C   0  0  1  0  0  0  0  0  0  0  0  0
    3.8596   -1.9909    0.1282 C   0  0  0  0  0  0  0  0  0  0  0  0
    3.5667    0.4944   -0.0016 C   0  0  0  0  0  0  0  0  0  0  0  0
    5.1886   -2.0907    0.8381 C   0  0  0  0  0  0  0  0  0  0  0  0
    6.1443   -1.5667   -0.2097 C   0  0  0  0  0  0  0  0  0  0  0  0
   -3.0306    0.4165   -0.2600 C   0  0  0  0  0  0  0  0  0  0  0  0
   -3.2443   -0.1646    0.9900 C   0  0  0  0  0  0  0  0  0  0  0  0
   -3.5853   -0.1616   -1.4019 C   0  0  0  0  0  0  0  0  0  0  0  0
   -4.0128   -1.3236    1.0980 C   0  0  0  0  0  0  0  0  0  0  0  0
   -2.6637    0.4293    2.2317 C   0  0  0  0  0  0  0  0  0  0  0  0
   -4.3535   -1.3208   -1.2939 C   0  0  0  0  0  0  0  0  0  0  0  0
   -4.5673   -1.9018   -0.0439 C   0  0  0  0  0  0  0  0  0  0  0  0
    0.8832   -0.9026    0.9122 H   0  0  0  0  0  0  0  0  0  0  0  0
    1.5991   -1.2379   -0.6741 H   0  0  0  0  0  0  0  0  0  0  0  0
    1.3787    1.3352    2.0289 H   0  0  0  0  0  0  0  0  0  0  0  0
    2.4635    2.4642    1.2082 H   0  0  0  0  0  0  0  0  0  0  0  0
    0.3251    0.5573   -1.7349 H   0  0  0  0  0  0  0  0  0  0  0  0
   -0.7303   -0.6106   -0.9140 H   0  0  0  0  0  0  0  0  0  0  0  0
    0.0793    3.1334    0.9554 H   0  0  0  0  0  0  0  0  0  0  0  0
    0.8166    2.7850   -0.6271 H   0  0  0  0  0  0  0  0  0  0  0  0
    3.5225   -0.8085   -1.6800 H   0  0  0  0  0  0  0  0  0  0  0  0
    3.7354   -2.8598   -0.5296 H   0  0  0  0  0  0  0  0  0  0  0  0
    3.0419   -1.9956    0.8508 H   0  0  0  0  0  0  0  0  0  0  0  0
    5.1934   -1.4301    1.7132 H   0  0  0  0  0  0  0  0  0  0  0  0
    5.4337   -3.1027    1.1708 H   0  0  0  0  0  0  0  0  0  0  0  0
    7.0476   -1.1287    0.2238 H   0  0  0  0  0  0  0  0  0  0  0  0
    6.4381   -2.3566   -0.9093 H   0  0  0  0  0  0  0  0  0  0  0  0
   -3.4376    0.2660   -2.3890 H   0  0  0  0  0  0  0  0  0  0  0  0
   -4.1810   -1.7782    2.0717 H   0  0  0  0  0  0  0  0  0  0  0  0
   -1.5752    0.5004    2.1895 H   0  0  0  0  0  0  0  0  0  0  0  0
   -3.1053    1.4053    2.4498 H   0  0  0  0  0  0  0  0  0  0  0  0
   -2.8823   -0.1999    3.1034 H   0  0  0  0  0  0  0  0  0  0  0  0
   -4.7783   -1.7591   -2.1933 H   0  0  0  0  0  0  0  0  0  0  0  0
  1 24  1  0  0  0  0
  2  5  2  0  0  0  0
  2  6  2  0  0  0  0
  2  8  1  0  0  0  0
  2 18  1  0  0  0  0
  3 13  1  0  0  0  0
  3 17  1  0  0  0  0
  4 15  2  0  0  0  0
  7  9  1  0  0  0  0
  7 10  1  0  0  0  0
  7 15  1  0  0  0  0
  8 11  1  0  0  0  0
  8 12  1  0  0  0  0
  9 11  1  0  0  0  0
  9 25  1  0  0  0  0
  9 26  1  0  0  0  0
 10 12  1  0  0  0  0
 10 27  1  0  0  0  0
 10 28  1  0  0  0  0
 11 29  1  0  0  0  0
 11 30  1  0  0  0  0
 12 31  1  0  0  0  0
 12 32  1  0  0  0  0
 13 14  1  0  0  0  0
 13 15  1  0  0  0  0
 13 33  1  0  0  0  0
 14 16  1  0  0  0  0
 14 34  1  0  0  0  0
 14 35  1  0  0  0  0
 16 17  1  0  0  0  0
 16 36  1  0  0  0  0
 16 37  1  0  0  0  0
 17 38  1  0  0  0  0
 17 39  1  0  0  0  0
 18 19  2  0  0  0  0
 18 20  1  0  0  0  0
 19 21  1  0  0  0  0
 19 22  1  0  0  0  0
 20 23  2  0  0  0  0
 20 40  1  0  0  0  0
 21 24  2  0  0  0  0
 21 41  1  0  0  0  0
 22 42  1  0  0  0  0
 22 43  1  0  0  0  0
 22 44  1  0  0  0  0
 23 24  1  0  0  0  0
 23 45  1  0  0  0  0
M  END
> <PUBCHEM_COMPOUND_CID>
102553047

> <PUBCHEM_CONFORMER_RMSD>
0.8

> <PUBCHEM_CONFORMER_DIVERSEORDER>
1
73
42
90
33
43
53
26
57
67
98
40
64
87
81
36
79
77
52
110
104
85
108
118
71
30
117
23
103
62
41
74
91
3
56
94
2
48
65
75
31
39
22
34
72
29
21
37
121
20
116
16
51
78
96
97
12
80
25
102
92
89
112
54
47
70
45
66
105
120
10
99
60
95
111
17
14
68
6
86
101
55
18
88
44
83
24
46
84
100
106
109
113
19
15
76
119
107
82
5
28
114
8
69
115
27
35
32
61
50
7
9
38
4
49
11
13
59
93
63
58

> <PUBCHEM_MMFF94_PARTIAL_CHARGES>
25
1 -0.11
10 0.3
11 0.36
12 0.36
13 0.34
15 0.57
17 0.28
18 -0.01
19 -0.14
2 1.45
20 -0.15
21 -0.15
22 0.14
23 -0.15
24 0.11
3 -0.56
4 -0.57
40 0.15
41 0.15
45 0.15
5 -0.65
6 -0.65
7 -0.66
8 -0.85
9 0.3

> <PUBCHEM_EFFECTIVE_ROTOR_COUNT>
6.2

> <PUBCHEM_PHARMACOPHORE_FEATURES>
8
1 1 hydrophobe
1 3 acceptor
1 4 acceptor
1 5 acceptor
1 6 acceptor
5 3 13 14 16 17 rings
6 18 19 20 21 23 24 rings
6 7 8 9 10 11 12 rings

> <PUBCHEM_HEAVY_ATOM_COUNT>
24

> <PUBCHEM_ATOM_DEF_STEREO_COUNT>
0

> <PUBCHEM_ATOM_UDEF_STEREO_COUNT>
1

> <PUBCHEM_BOND_DEF_STEREO_COUNT>
0

> <PUBCHEM_BOND_UDEF_STEREO_COUNT>
0

> <PUBCHEM_ISOTOPIC_ATOM_COUNT>
0

> <PUBCHEM_COMPONENT_COUNT>
1

> <PUBCHEM_CACTVS_TAUTO_COUNT>
2

> <PUBCHEM_CONFORMER_ID>
061CD5D700000001

> <PUBCHEM_MMFF94_ENERGY>
49.1145

> <PUBCHEM_FEATURE_SELFOVERLAP>
40.633

> <PUBCHEM_SHAPE_FINGERPRINT>
10 15 11455883697996140015
105312 117 10953752088157267728
10622 236 17127027381810890047
10928967 22 18272370879936735934
11405975 8 18340486647590341168
11796584 16 18192991518195107310
12596602 18 17203605995641331570
12633257 1 15553612958091870347
12760667 363 18342734114103323327
12916754 54 18412263969194629497
13103583 49 17917165934858624753
13533116 47 18057325200567953083
13544653 18 18409169934688967333
13583140 156 14620512264254500042
13675066 3 14764352613283839284
13994607 96 11025801972866100983
14251764 30 18337109063723101799
14347332 77 18333725806251414107
14950920 106 17346041177073318723
15064981 113 14491008550725506722
15250474 111 18042677309005139690
15475509 35 17194605621575485571
15880784 105 18341899614193772618
17357779 13 18261385693802231181
17780758 139 17561366136557660778
17844677 252 18410859850149617684
17857418 61 18335136458543167290
17870717 6 17313100869767656571
18927931 339 18335432213811299126
19377110 9 15912747497481196128
19784866 34 9151183042782930253
20028762 73 17846497083994812903
21033650 10 16877929513406621285
221490 88 18412259541210012712
22393880 68 18041545997354756803
22950370 63 18413396436085134728
23522609 53 18050323415580171481
23559900 14 18334002904535202173
2838139 119 9294474684324018267
329604 57 18408041810326623726
34797466 226 16588314928981787174
439807 62 18259984872875669891
44062 13 18336543798602693645
465052 167 18201443622569891406
484985 159 18410855426601944751
5104073 3 18131067121754916872
5486654 36 18343026579658803433
59682541 52 14779805162306262243
59755656 520 18192987120344529029
6431902 208 18410292497654485106
70251023 43 18262798587813803025
7062679 13 18409164432751562594
7288768 16 10952058866189075431
7495541 125 18412544302205664676
7970288 3 18338517577010716083

> <PUBCHEM_SHAPE_MULTIPOLES>
470.26
13.73
3.2
1.37
10.01
0.41
-0.17
13.3
0.61
-2.28
-0.16
-1.24
-0.27
0.23

> <PUBCHEM_SHAPE_SELFOVERLAP>
963.587

> <PUBCHEM_SHAPE_VOLUME>
275.4

> <PUBCHEM_COORDINATE_TYPE>
2
5
10

$$$$
