11370008
  -OEChem-02172602523D

 42 43  0     1  0  0  0  0  0999 V2000
   -1.4225    1.3349    0.3986 P   0  0  0  0  0  0  0  0  0  0  0  0
   -1.5202    1.7990   -1.1526 O   0  0  0  0  0  0  0  0  0  0  0  0
   -0.5663    2.5352    1.0720 O   0  0  0  0  0  0  0  0  0  0  0  0
   -2.7709    1.1152    1.0261 O   0  0  0  0  0  0  0  0  0  0  0  0
    2.0811   -0.6161    1.8123 O   0  0  0  0  0  0  0  0  0  0  0  0
   -1.1430   -1.0743   -0.3355 N   0  0  0  0  0  0  0  0  0  0  0  0
   -0.3371   -0.0974    0.3816 C   0  0  1  0  0  0  0  0  0  0  0  0
   -2.4597   -1.2657    0.2719 C   0  0  0  0  0  0  0  0  0  0  0  0
   -0.5323   -2.4032   -0.3447 C   0  0  0  0  0  0  0  0  0  0  0  0
   -2.9477   -2.5545   -0.3728 C   0  0  0  0  0  0  0  0  0  0  0  0
   -1.6810   -3.3038   -0.7749 C   0  0  0  0  0  0  0  0  0  0  0  0
    1.0335    0.0576   -0.2355 C   0  0  0  0  0  0  0  0  0  0  0  0
    2.1677   -0.2105    0.5144 C   0  0  0  0  0  0  0  0  0  0  0  0
    1.1244    0.4703   -1.5557 C   0  0  0  0  0  0  0  0  0  0  0  0
    3.4252   -0.0624   -0.0707 C   0  0  0  0  0  0  0  0  0  0  0  0
    2.3821    0.6186   -2.1406 C   0  0  0  0  0  0  0  0  0  0  0  0
    3.5324    0.3522   -1.3982 C   0  0  0  0  0  0  0  0  0  0  0  0
   -2.3025    2.9168   -1.5353 C   0  0  0  0  0  0  0  0  0  0  0  0
   -0.0681    2.4086    2.3910 C   0  0  0  0  0  0  0  0  0  0  0  0
    2.0053   -2.0205    2.0487 C   0  0  0  0  0  0  0  0  0  0  0  0
   -0.2485   -0.3946    1.4326 H   0  0  0  0  0  0  0  0  0  0  0  0
   -3.2144   -0.5548   -0.0634 H   0  0  0  0  0  0  0  0  0  0  0  0
   -2.4346   -1.3779    1.3623 H   0  0  0  0  0  0  0  0  0  0  0  0
   -0.2154   -2.7115    0.6560 H   0  0  0  0  0  0  0  0  0  0  0  0
    0.3123   -2.4934   -1.0344 H   0  0  0  0  0  0  0  0  0  0  0  0
   -3.5598   -3.1412    0.3199 H   0  0  0  0  0  0  0  0  0  0  0  0
   -3.5535   -2.3530   -1.2649 H   0  0  0  0  0  0  0  0  0  0  0  0
   -1.6701   -3.4556   -1.8607 H   0  0  0  0  0  0  0  0  0  0  0  0
   -1.6225   -4.2873   -0.2976 H   0  0  0  0  0  0  0  0  0  0  0  0
    0.2532    0.6453   -2.1753 H   0  0  0  0  0  0  0  0  0  0  0  0
    4.3256   -0.2683    0.5017 H   0  0  0  0  0  0  0  0  0  0  0  0
    2.4658    0.9319   -3.1772 H   0  0  0  0  0  0  0  0  0  0  0  0
    4.5114    0.4655   -1.8544 H   0  0  0  0  0  0  0  0  0  0  0  0
   -3.3523    2.7325   -1.2939 H   0  0  0  0  0  0  0  0  0  0  0  0
   -2.2017    3.0648   -2.6130 H   0  0  0  0  0  0  0  0  0  0  0  0
   -1.9526    3.8116   -1.0146 H   0  0  0  0  0  0  0  0  0  0  0  0
   -0.7357    1.7916    2.9987 H   0  0  0  0  0  0  0  0  0  0  0  0
   -0.0002    3.4040    2.8368 H   0  0  0  0  0  0  0  0  0  0  0  0
    0.9282    1.9635    2.3659 H   0  0  0  0  0  0  0  0  0  0  0  0
    1.0530   -2.2487    2.5345 H   0  0  0  0  0  0  0  0  0  0  0  0
    2.1104   -2.6111    1.1324 H   0  0  0  0  0  0  0  0  0  0  0  0
    2.8137   -2.2958    2.7324 H   0  0  0  0  0  0  0  0  0  0  0  0
  1  2  1  0  0  0  0
  1  3  1  0  0  0  0
  1  4  2  0  0  0  0
  1  7  1  0  0  0  0
  2 18  1  0  0  0  0
  3 19  1  0  0  0  0
  5 13  1  0  0  0  0
  5 20  1  0  0  0  0
  6  7  1  0  0  0  0
  6  8  1  0  0  0  0
  6  9  1  0  0  0  0
  7 12  1  0  0  0  0
  7 21  1  0  0  0  0
  8 10  1  0  0  0  0
  8 22  1  0  0  0  0
  8 23  1  0  0  0  0
  9 11  1  0  0  0  0
  9 24  1  0  0  0  0
  9 25  1  0  0  0  0
 10 11  1  0  0  0  0
 10 26  1  0  0  0  0
 10 27  1  0  0  0  0
 11 28  1  0  0  0  0
 11 29  1  0  0  0  0
 12 13  1  0  0  0  0
 12 14  2  0  0  0  0
 13 15  2  0  0  0  0
 14 16  1  0  0  0  0
 14 30  1  0  0  0  0
 15 17  1  0  0  0  0
 15 31  1  0  0  0  0
 16 17  2  0  0  0  0
 16 32  1  0  0  0  0
 17 33  1  0  0  0  0
 18 34  1  0  0  0  0
 18 35  1  0  0  0  0
 18 36  1  0  0  0  0
 19 37  1  0  0  0  0
 19 38  1  0  0  0  0
 19 39  1  0  0  0  0
 20 40  1  0  0  0  0
 20 41  1  0  0  0  0
 20 42  1  0  0  0  0
M  END
> <PUBCHEM_COMPOUND_CID>
11370008

> <PUBCHEM_CONFORMER_RMSD>
0.8

> <PUBCHEM_CONFORMER_DIVERSEORDER>
3
15
18
14
9
6
8
16
12
17
13
4
1
2
7
11
10
5

> <PUBCHEM_MMFF94_PARTIAL_CHARGES>
22
1 1.24
12 -0.14
13 0.08
14 -0.15
15 -0.15
16 -0.15
17 -0.15
18 0.28
19 0.28
2 -0.55
20 0.28
3 -0.55
30 0.15
31 0.15
32 0.15
33 0.15
4 -0.7
5 -0.36
6 -0.81
7 0.41
8 0.27
9 0.27

> <PUBCHEM_EFFECTIVE_ROTOR_COUNT>
7

> <PUBCHEM_PHARMACOPHORE_FEATURES>
5
1 4 acceptor
1 5 acceptor
1 6 cation
5 6 8 9 10 11 rings
6 12 13 14 15 16 17 rings

> <PUBCHEM_HEAVY_ATOM_COUNT>
20

> <PUBCHEM_ATOM_DEF_STEREO_COUNT>
0

> <PUBCHEM_ATOM_UDEF_STEREO_COUNT>
1

> <PUBCHEM_BOND_DEF_STEREO_COUNT>
0

> <PUBCHEM_BOND_UDEF_STEREO_COUNT>
0

> <PUBCHEM_ISOTOPIC_ATOM_COUNT>
0

> <PUBCHEM_COMPONENT_COUNT>
1

> <PUBCHEM_CACTVS_TAUTO_COUNT>
1

> <PUBCHEM_CONFORMER_ID>
00AD7E1800000003

> <PUBCHEM_MMFF94_ENERGY>
69.0561

> <PUBCHEM_FEATURE_SELFOVERLAP>
25.371

> <PUBCHEM_SHAPE_FINGERPRINT>
11578080 2 17828166051847805828
12423570 1 15256005997632134445
12716301 132 18131354085314897899
13538477 17 18409448059764968226
13583140 156 17631142287862171138
14787075 74 17761201512229575152
14817 1 12589669920929763138
15852999 172 18054490422883107190
1601671 61 18341066180929197059
16752209 62 18410284818226352503
16945 1 18260819414879669406
20511035 2 17170970136554513204
20600515 1 18057896929170718035
20691752 17 17899410080506210697
20905425 154 17624411278696246593
22112679 90 18263092161270001895
23419403 2 17840564200992270629
23526113 38 16629134156777339726
23557571 272 17916321579059737540
23559900 14 18059868212640072390
23598291 2 17822564998177249842
23598294 1 18341902895596525771
2748010 2 17845924242778336464
350125 39 17836392361881593183
568465 68 16127835039974892526
5845 1 10749846535609833631
6442390 28 17340167418395836745
6992083 37 17826777158466684434
7364860 26 16980409764771177755
77492 1 18114189674023988654
81228 2 18268167506912316615

> <PUBCHEM_SHAPE_MULTIPOLES>
386.98
4.76
3.52
2.07
1.71
0.19
0.55
-1.35
-1.27
-3.5
0.12
1.17
0.86
-0.75

> <PUBCHEM_SHAPE_SELFOVERLAP>
783.13

> <PUBCHEM_SHAPE_VOLUME>
227.9

> <PUBCHEM_COORDINATE_TYPE>
2
5
10

$$$$
