62433
  -OEChem-02172602543D

 32 31  0     0  0  0  0  0  0999 V2000
    0.0805   -0.3220    0.0224 O   0  0  0  0  0  0  0  0  0  0  0  0
   -1.1688    1.6175   -0.0050 O   0  0  0  0  0  0  0  0  0  0  0  0
    3.8010    0.2662    0.0175 C   0  0  0  0  0  0  0  0  0  0  0  0
    2.4771   -0.4947    0.0355 C   0  0  0  0  0  0  0  0  0  0  0  0
    4.9922   -0.6911   -0.0090 C   0  0  0  0  0  0  0  0  0  0  0  0
    1.2848    0.4514    0.0194 C   0  0  0  0  0  0  0  0  0  0  0  0
   -3.5907    0.1709    0.0209 C   0  0  0  0  0  0  0  0  0  0  0  0
   -2.2498   -0.5613    0.0122 C   0  0  0  0  0  0  0  0  0  0  0  0
   -4.7607   -0.8113   -0.0158 C   0  0  0  0  0  0  0  0  0  0  0  0
   -1.0809    0.3975    0.0091 C   0  0  0  0  0  0  0  0  0  0  0  0
    6.3116    0.0627   -0.0611 C   0  0  0  0  0  0  0  0  0  0  0  0
   -6.0962   -0.0857   -0.0461 C   0  0  0  0  0  0  0  0  0  0  0  0
    3.8667    0.9128    0.9009 H   0  0  0  0  0  0  0  0  0  0  0  0
    3.8366    0.9186   -0.8636 H   0  0  0  0  0  0  0  0  0  0  0  0
    2.4201   -1.1380    0.9224 H   0  0  0  0  0  0  0  0  0  0  0  0
    2.4144   -1.1688   -0.8281 H   0  0  0  0  0  0  0  0  0  0  0  0
    4.9762   -1.3298    0.8817 H   0  0  0  0  0  0  0  0  0  0  0  0
    4.9217   -1.3501   -0.8822 H   0  0  0  0  0  0  0  0  0  0  0  0
    1.3103    1.0752   -0.8817 H   0  0  0  0  0  0  0  0  0  0  0  0
    1.3032    1.0958    0.9062 H   0  0  0  0  0  0  0  0  0  0  0  0
   -3.6627    0.8014    0.9160 H   0  0  0  0  0  0  0  0  0  0  0  0
   -3.6482    0.8442   -0.8437 H   0  0  0  0  0  0  0  0  0  0  0  0
   -2.1761   -1.1890   -0.8829 H   0  0  0  0  0  0  0  0  0  0  0  0
   -2.1707   -1.1962    0.9018 H   0  0  0  0  0  0  0  0  0  0  0  0
   -4.7249   -1.4657    0.8629 H   0  0  0  0  0  0  0  0  0  0  0  0
   -4.6817   -1.4525   -0.9014 H   0  0  0  0  0  0  0  0  0  0  0  0
    6.3727    0.6853   -0.9595 H   0  0  0  0  0  0  0  0  0  0  0  0
    6.4285    0.7096    0.8142 H   0  0  0  0  0  0  0  0  0  0  0  0
    7.1497   -0.6410   -0.0780 H   0  0  0  0  0  0  0  0  0  0  0  0
   -6.2215    0.5427    0.8415 H   0  0  0  0  0  0  0  0  0  0  0  0
   -6.1767    0.5515   -0.9326 H   0  0  0  0  0  0  0  0  0  0  0  0
   -6.9191   -0.8070   -0.0705 H   0  0  0  0  0  0  0  0  0  0  0  0
  1  6  1  0  0  0  0
  1 10  1  0  0  0  0
  2 10  2  0  0  0  0
  3  4  1  0  0  0  0
  3  5  1  0  0  0  0
  3 13  1  0  0  0  0
  3 14  1  0  0  0  0
  4  6  1  0  0  0  0
  4 15  1  0  0  0  0
  4 16  1  0  0  0  0
  5 11  1  0  0  0  0
  5 17  1  0  0  0  0
  5 18  1  0  0  0  0
  6 19  1  0  0  0  0
  6 20  1  0  0  0  0
  7  8  1  0  0  0  0
  7  9  1  0  0  0  0
  7 21  1  0  0  0  0
  7 22  1  0  0  0  0
  8 10  1  0  0  0  0
  8 23  1  0  0  0  0
  8 24  1  0  0  0  0
  9 12  1  0  0  0  0
  9 25  1  0  0  0  0
  9 26  1  0  0  0  0
 11 27  1  0  0  0  0
 11 28  1  0  0  0  0
 11 29  1  0  0  0  0
 12 30  1  0  0  0  0
 12 31  1  0  0  0  0
 12 32  1  0  0  0  0
M  END
> <PUBCHEM_COMPOUND_CID>
62433

> <PUBCHEM_CONFORMER_RMSD>
0.8

> <PUBCHEM_CONFORMER_DIVERSEORDER>
1
308
268
220
198
19
47
68
273
333
190
207
110
205
3
355
55
159
18
384
303
6
267
286
34
44
237
103
376
127
51
193
83
369
96
349
346
188
23
255
141
257
74
364
318
4
380
9
144
368
258
67
326
284
58
287
343
22
247
227
361
260
234
187
98
142
298
270
320
241
26
89
263
85
299
54
130
185
235
383
116
313
79
32
20
358
46
277
123
281
378
330
8
21
2
213
289
329
73
5
377
111
328
363
249
244
375
215
37
197
225
118
40
163
325
272
366
222
48
114
332
180
271
62
129
155
100
290
173
143
161
335
239
151
28
301
12
360
371
25
351
336
216
112
219
15
14
334
186
108
109
77
35
280
357
356
381
176
170
347
81
192
196
245
56
113
132
95
262
117
39
342
256
382
70
210
90
307
136
339
264
97
172
125
138
63
266
75
178
288
66
367
304
344
29
101
59
209
340
13
171
191
134
76
157
158
309
275
86
311
248
319
33
92
246
200
226
65
228
10
189
352
167
321
52
87
154
362
282
316
11
80
38
294
168
135
30
128
379
265
206
214
259
31
124
160
139
42
147
296
16
49
345
232
242
250
50
53
261
184
148
300
293
7
71
150
182
94
152
276
201
179
145
84
240
350
64
60
202
269
305
231
306
119
243
317
149
107
292
302
194
91
195
102
208
224
203
373
254
43
338
183
156
233
153
177
106
223
370
82
365
285
253
24
218
27
279
121
310
36
72
236
131
45
314
199
283
78
251
252
162
337
278
238
359
99
274
204
164
348
133
322
122
17
211
104
174
175
341
181
221
331
353
372
229
41
323
212
165
115
169
166
312
105
354
88
291
374
61
126
146
297
93
327
57
69
324
120
217
137
315
230
295
140

> <PUBCHEM_MMFF94_PARTIAL_CHARGES>
5
1 -0.43
10 0.66
2 -0.57
6 0.28
8 0.06

> <PUBCHEM_EFFECTIVE_ROTOR_COUNT>
8

> <PUBCHEM_PHARMACOPHORE_FEATURES>
3
1 11 hydrophobe
1 12 hydrophobe
1 2 acceptor

> <PUBCHEM_HEAVY_ATOM_COUNT>
12

> <PUBCHEM_ATOM_DEF_STEREO_COUNT>
0

> <PUBCHEM_ATOM_UDEF_STEREO_COUNT>
0

> <PUBCHEM_BOND_DEF_STEREO_COUNT>
0

> <PUBCHEM_BOND_UDEF_STEREO_COUNT>
0

> <PUBCHEM_ISOTOPIC_ATOM_COUNT>
0

> <PUBCHEM_COMPONENT_COUNT>
1

> <PUBCHEM_CACTVS_TAUTO_COUNT>
1

> <PUBCHEM_CONFORMER_ID>
0000F3E100000001

> <PUBCHEM_MMFF94_ENERGY>
-0.2662

> <PUBCHEM_FEATURE_SELFOVERLAP>
15.223

> <PUBCHEM_SHAPE_FINGERPRINT>
10968037 39 18335422382783976815
12091667 2 17095241424074094947
12714333 28 15140679189483657566
12815109 37 18409729564532247151
13533116 47 17385994045476948850
14123238 8 18202002123179435946
1420 363 18411704287621532618
14251718 22 18040715866154556350
14251764 46 17022903458634001427
15242439 84 11891337547794529532
17834072 33 18343020025348681948
17834072 8 18260259751335820125
17834076 25 11386365945922167794
18006028 8 18131348614064567729
187816 3 17167863067107710241
200 152 18334856112625591848
20645477 56 9439400224789509146
20645477 70 18335981948815430378
20767249 13 18409167718575260023
20767249 213 10231752292793715954
23402539 116 18341608226907244383
23521765 1 18341895194646024838
23557571 272 18411141290513382596
42788 4 18410573989446418432
4463277 17 18411699889411614681
8209 1 18335420170701668070

> <PUBCHEM_SHAPE_MULTIPOLES>
235.22
15.2
0.96
0.6
3.5
0.18
0
-2.47
-0.33
-0.22
0
0.01
-0.01
-0.01

> <PUBCHEM_SHAPE_SELFOVERLAP>
425.425

> <PUBCHEM_SHAPE_VOLUME>
151.4

> <PUBCHEM_COORDINATE_TYPE>
2
5
10

$$$$
