161313
  -OEChem-02172602283D

 38 40  0     1  0  0  0  0  0999 V2000
    3.3801    0.7215    0.7360 N   0  0  1  0  0  0  0  0  0  0  0  0
   -0.9994    0.6960   -1.0743 N   0  0  0  0  0  0  0  0  0  0  0  0
   -5.0003   -1.1975    0.5998 N   0  0  0  0  0  0  0  0  0  0  0  0
    2.7010    0.1292   -0.4460 C   0  0  1  0  0  0  0  0  0  0  0  0
    3.2349   -1.2902   -0.7532 C   0  0  0  0  0  0  0  0  0  0  0  0
    4.7498   -1.3094   -0.9016 C   0  0  0  0  0  0  0  0  0  0  0  0
    5.3977   -0.6843    0.3236 C   0  0  0  0  0  0  0  0  0  0  0  0
    4.8459    0.7166    0.5741 C   0  0  0  0  0  0  0  0  0  0  0  0
    1.1817    0.0553   -0.2851 C   0  0  0  0  0  0  0  0  0  0  0  0
    2.9415    2.1014    0.9872 C   0  0  0  0  0  0  0  0  0  0  0  0
    0.6187   -0.6800    0.7430 C   0  0  0  0  0  0  0  0  0  0  0  0
    0.3496    0.7200   -1.1609 C   0  0  0  0  0  0  0  0  0  0  0  0
   -0.7656   -0.7287    0.8649 C   0  0  0  0  0  0  0  0  0  0  0  0
   -1.5232   -0.0296   -0.0610 C   0  0  0  0  0  0  0  0  0  0  0  0
   -2.9655   -0.0365    0.0026 C   0  0  0  0  0  0  0  0  0  0  0  0
   -3.7085    1.0503   -0.4450 C   0  0  0  0  0  0  0  0  0  0  0  0
   -3.6531   -1.1264    0.5117 C   0  0  0  0  0  0  0  0  0  0  0  0
   -5.0966    1.0145   -0.3708 C   0  0  0  0  0  0  0  0  0  0  0  0
   -5.6887   -0.1224    0.1550 C   0  0  0  0  0  0  0  0  0  0  0  0
    2.9256    0.7564   -1.3215 H   0  0  0  0  0  0  0  0  0  0  0  0
    2.7777   -1.6708   -1.6756 H   0  0  0  0  0  0  0  0  0  0  0  0
    2.9585   -1.9940    0.0425 H   0  0  0  0  0  0  0  0  0  0  0  0
    5.0407   -0.7532   -1.8010 H   0  0  0  0  0  0  0  0  0  0  0  0
    5.1022   -2.3387   -1.0300 H   0  0  0  0  0  0  0  0  0  0  0  0
    5.2175   -1.3166    1.2021 H   0  0  0  0  0  0  0  0  0  0  0  0
    6.4832   -0.6342    0.1822 H   0  0  0  0  0  0  0  0  0  0  0  0
    5.3166    1.1051    1.4857 H   0  0  0  0  0  0  0  0  0  0  0  0
    5.1451    1.3766   -0.2514 H   0  0  0  0  0  0  0  0  0  0  0  0
    3.1212    2.7543    0.1253 H   0  0  0  0  0  0  0  0  0  0  0  0
    3.4705    2.5208    1.8509 H   0  0  0  0  0  0  0  0  0  0  0  0
    1.8773    2.1448    1.2404 H   0  0  0  0  0  0  0  0  0  0  0  0
    1.2327   -1.2094    1.4655 H   0  0  0  0  0  0  0  0  0  0  0  0
    0.7388    1.3110   -1.9835 H   0  0  0  0  0  0  0  0  0  0  0  0
   -1.1974   -1.2876    1.6881 H   0  0  0  0  0  0  0  0  0  0  0  0
   -3.2352    1.9426   -0.8469 H   0  0  0  0  0  0  0  0  0  0  0  0
   -3.1555   -2.0260    0.8604 H   0  0  0  0  0  0  0  0  0  0  0  0
   -5.6961    1.8509   -0.7114 H   0  0  0  0  0  0  0  0  0  0  0  0
   -6.7680   -0.1997    0.2354 H   0  0  0  0  0  0  0  0  0  0  0  0
  1  4  1  0  0  0  0
  1  8  1  0  0  0  0
  1 10  1  0  0  0  0
  2 12  1  0  0  0  0
  2 14  2  0  0  0  0
  3 17  1  0  0  0  0
  3 19  2  0  0  0  0
  4  5  1  0  0  0  0
  4  9  1  0  0  0  0
  4 20  1  0  0  0  0
  5  6  1  0  0  0  0
  5 21  1  0  0  0  0
  5 22  1  0  0  0  0
  6  7  1  0  0  0  0
  6 23  1  0  0  0  0
  6 24  1  0  0  0  0
  7  8  1  0  0  0  0
  7 25  1  0  0  0  0
  7 26  1  0  0  0  0
  8 27  1  0  0  0  0
  8 28  1  0  0  0  0
  9 11  1  0  0  0  0
  9 12  2  0  0  0  0
 10 29  1  0  0  0  0
 10 30  1  0  0  0  0
 10 31  1  0  0  0  0
 11 13  2  0  0  0  0
 11 32  1  0  0  0  0
 12 33  1  0  0  0  0
 13 14  1  0  0  0  0
 13 34  1  0  0  0  0
 14 15  1  0  0  0  0
 15 16  1  0  0  0  0
 15 17  2  0  0  0  0
 16 18  2  0  0  0  0
 16 35  1  0  0  0  0
 17 36  1  0  0  0  0
 18 19  1  0  0  0  0
 18 37  1  0  0  0  0
 19 38  1  0  0  0  0
M  END
> <PUBCHEM_COMPOUND_CID>
161313

> <PUBCHEM_CONFORMER_RMSD>
0.6

> <PUBCHEM_CONFORMER_DIVERSEORDER>
2
15
25
49
36
55
1
33
11
41
18
54
31
13
37
39
14
35
57
27
46
28
9
16
30
43
4
32
52
3
19
10
40
29
58
21
47
7
20
38
53
12
22
23
42
17
26
48
44
24
34
6
50
8
51
56
45
5

> <PUBCHEM_MMFF94_PARTIAL_CHARGES>
22
1 -0.81
10 0.27
11 -0.15
12 0.16
13 -0.15
14 0.31
16 -0.15
17 0.16
18 -0.15
19 0.16
2 -0.62
3 -0.62
32 0.15
33 0.15
34 0.15
35 0.15
36 0.15
37 0.15
38 0.15
4 0.41
8 0.27
9 -0.14

> <PUBCHEM_EFFECTIVE_ROTOR_COUNT>
3.2

> <PUBCHEM_PHARMACOPHORE_FEATURES>
6
1 1 cation
1 2 acceptor
1 3 acceptor
6 1 4 5 6 7 8 rings
6 2 9 11 12 13 14 rings
6 3 15 16 17 18 19 rings

> <PUBCHEM_HEAVY_ATOM_COUNT>
19

> <PUBCHEM_ATOM_DEF_STEREO_COUNT>
0

> <PUBCHEM_ATOM_UDEF_STEREO_COUNT>
1

> <PUBCHEM_BOND_DEF_STEREO_COUNT>
0

> <PUBCHEM_BOND_UDEF_STEREO_COUNT>
0

> <PUBCHEM_ISOTOPIC_ATOM_COUNT>
0

> <PUBCHEM_COMPONENT_COUNT>
1

> <PUBCHEM_CACTVS_TAUTO_COUNT>
1

> <PUBCHEM_CONFORMER_ID>
0002762100000002

> <PUBCHEM_MMFF94_ENERGY>
48.4045

> <PUBCHEM_FEATURE_SELFOVERLAP>
30.446

> <PUBCHEM_SHAPE_FINGERPRINT>
10090160 65 16486977267081338878
11045977 3 18410291440960122537
11287383 113 18343865532425995123
11401426 45 17967250897206759863
11405975 8 18343585161366649547
12107183 9 17196873470753002131
12236239 1 15357696375163454788
12403259 415 18259977180367502069
12507560 40 18342175570359196605
12616971 3 17060615616170732181
12670546 56 17489308551193985458
13167372 99 17489596614914636385
13533116 47 15984828091290819846
13544592 145 18409736140496819278
13583140 156 17846213427274025759
13675066 3 18408605894071984463
13760787 5 16487255465177239701
13862211 1 17458061573241611747
1420 363 18334298669226510419
14251764 18 17967526883790195058
14341114 176 18272374178297064776
14573314 32 18410857633418614933
15788980 27 17989485221185325727
17349148 13 16950284013890418835
17834072 33 17917706928860230679
17844677 252 18272657839681303865
18186145 218 18187357731639961101
18222031 100 17167859802895486205
18785283 64 18267859674402383792
19026448 4 18342176674186617743
19141452 34 18411418444689787295
19433438 28 18409165519752640081
19489759 90 18259702290155527921
200 152 17632576024315619555
20645477 70 17989211408652259238
21033648 29 18200578246831623985
21065201 7 18113333124427346147
21267235 1 17822020826437752371
23402539 116 18113896061422213887
23536379 177 17917430895802191243
23557571 272 18041001687622359925
23559900 14 18410855477429538848
23622692 88 17203608186264173148
239999 70 18412267220954501038
26918003 58 18202002131236757139
351380 180 18272649047603622137
3545911 37 18059857289894530032
4214541 1 18409449168088180485
4340502 62 17703790331727412502
4990 188 18335143063822969382
5104073 3 18408044030708567905
542803 24 14923945635017612615
59755656 215 18186800240774952995
633830 44 18260259784888501735
7495541 125 18409730673119034764
8272917 22 17703794708694271302
9971528 1 18187085074289313636

> <PUBCHEM_SHAPE_MULTIPOLES>
376.07
13.13
1.46
1.04
4.16
0.29
0.06
-1.19
-0.77
-0.76
-0.16
-0.36
0.06
1.41

> <PUBCHEM_SHAPE_SELFOVERLAP>
806.76

> <PUBCHEM_SHAPE_VOLUME>
204.4

> <PUBCHEM_COORDINATE_TYPE>
2
5
10

$$$$
