102213758
  -OEChem-02172602523D

 36 36  0     1  0  0  0  0  0999 V2000
    1.1382    0.8867    0.4378 O   0  0  0  0  0  0  0  0  0  0  0  0
    1.6729   -2.6322   -0.4664 O   0  0  0  0  0  0  0  0  0  0  0  0
    4.3370   -1.7539    0.3294 O   0  0  0  0  0  0  0  0  0  0  0  0
    3.6165    0.4581    1.8285 O   0  0  0  0  0  0  0  0  0  0  0  0
    2.4343    1.7342   -1.3605 O   0  0  0  0  0  0  0  0  0  0  0  0
   -1.4617    0.1704   -0.0021 O   0  0  0  0  0  0  0  0  0  0  0  0
   -4.7809    0.8884    1.1166 O   0  0  0  0  0  0  0  0  0  0  0  0
   -4.5579   -1.6132   -0.1332 O   0  0  0  0  0  0  0  0  0  0  0  0
   -3.1430    2.2355    0.3018 O   0  0  0  0  0  0  0  0  0  0  0  0
   -2.8073   -1.5287   -1.5788 O   0  0  0  0  0  0  0  0  0  0  0  0
    1.9354   -1.4165    0.2293 C   0  0  1  0  0  0  0  0  0  0  0  0
    3.3170   -0.8894   -0.1634 C   0  0  1  0  0  0  0  0  0  0  0  0
    0.8562   -0.3907   -0.1395 C   0  0  1  0  0  0  0  0  0  0  0  0
    3.5439    0.5133    0.4027 C   0  0  1  0  0  0  0  0  0  0  0  0
    2.3922    1.4470    0.0331 C   0  0  2  0  0  0  0  0  0  0  0  0
   -0.5196   -0.8218    0.3611 C   0  0  0  0  0  0  0  0  0  0  0  0
   -2.7746   -0.1643    0.4335 C   0  0  0  0  0  0  0  0  0  0  0  0
    1.7055    2.9134   -1.6699 C   0  0  0  0  0  0  0  0  0  0  0  0
   -3.5534    1.1196    0.5883 C   0  0  0  0  0  0  0  0  0  0  0  0
   -3.3505   -1.1558   -0.5484 C   0  0  0  0  0  0  0  0  0  0  0  0
    1.9155   -1.6416    1.3020 H   0  0  0  0  0  0  0  0  0  0  0  0
    3.4095   -0.8780   -1.2564 H   0  0  0  0  0  0  0  0  0  0  0  0
    0.7903   -0.2701   -1.2291 H   0  0  0  0  0  0  0  0  0  0  0  0
    4.5022    0.9021    0.0391 H   0  0  0  0  0  0  0  0  0  0  0  0
    2.5108    2.3790    0.6004 H   0  0  0  0  0  0  0  0  0  0  0  0
   -0.7892   -1.7963   -0.0583 H   0  0  0  0  0  0  0  0  0  0  0  0
   -0.4981   -0.9022    1.4552 H   0  0  0  0  0  0  0  0  0  0  0  0
    1.6907   -2.4437   -1.4202 H   0  0  0  0  0  0  0  0  0  0  0  0
    5.1932   -1.3856    0.0523 H   0  0  0  0  0  0  0  0  0  0  0  0
    3.8201    1.3538    2.1476 H   0  0  0  0  0  0  0  0  0  0  0  0
   -2.7180   -0.6305    1.4258 H   0  0  0  0  0  0  0  0  0  0  0  0
    1.7448    3.0660   -2.7518 H   0  0  0  0  0  0  0  0  0  0  0  0
    2.1554    3.7836   -1.1821 H   0  0  0  0  0  0  0  0  0  0  0  0
    0.6573    2.8123   -1.3722 H   0  0  0  0  0  0  0  0  0  0  0  0
   -5.2924    1.7176    1.2315 H   0  0  0  0  0  0  0  0  0  0  0  0
   -4.9370   -2.2666   -0.7590 H   0  0  0  0  0  0  0  0  0  0  0  0
  1 13  1  0  0  0  0
  1 15  1  0  0  0  0
  2 11  1  0  0  0  0
  2 28  1  0  0  0  0
  3 12  1  0  0  0  0
  3 29  1  0  0  0  0
  4 14  1  0  0  0  0
  4 30  1  0  0  0  0
  5 15  1  0  0  0  0
  5 18  1  0  0  0  0
  6 16  1  0  0  0  0
  6 17  1  0  0  0  0
  7 19  1  0  0  0  0
  7 35  1  0  0  0  0
  8 20  1  0  0  0  0
  8 36  1  0  0  0  0
  9 19  2  0  0  0  0
 10 20  2  0  0  0  0
 11 12  1  0  0  0  0
 11 13  1  0  0  0  0
 11 21  1  0  0  0  0
 12 14  1  0  0  0  0
 12 22  1  0  0  0  0
 13 16  1  0  0  0  0
 13 23  1  0  0  0  0
 14 15  1  0  0  0  0
 14 24  1  0  0  0  0
 15 25  1  0  0  0  0
 16 26  1  0  0  0  0
 16 27  1  0  0  0  0
 17 19  1  0  0  0  0
 17 20  1  0  0  0  0
 17 31  1  0  0  0  0
 18 32  1  0  0  0  0
 18 33  1  0  0  0  0
 18 34  1  0  0  0  0
M  END
> <PUBCHEM_COMPOUND_CID>
102213758

> <PUBCHEM_CONFORMER_RMSD>
0.8

> <PUBCHEM_CONFORMER_DIVERSEORDER>
1
49
57
22
45
27
40
42
52
25
16
19
24
44
38
43
32
48
50
23
20
3
18
15
29
31
8
11
13
5
39
17
2
47
58
53
21
51
14
46
26
4
36
54
37
41
7
9
6
34
28
10
12
56
35
33
55
30

> <PUBCHEM_MMFF94_PARTIAL_CHARGES>
25
1 -0.56
10 -0.57
11 0.28
12 0.28
13 0.28
14 0.28
15 0.56
16 0.28
17 0.4
18 0.28
19 0.66
2 -0.68
20 0.66
28 0.4
29 0.4
3 -0.68
30 0.4
35 0.5
36 0.5
4 -0.68
5 -0.56
6 -0.56
7 -0.65
8 -0.65
9 -0.57

> <PUBCHEM_EFFECTIVE_ROTOR_COUNT>
7.2

> <PUBCHEM_PHARMACOPHORE_FEATURES>
17
1 1 acceptor
1 10 acceptor
1 17 anion
1 2 acceptor
1 2 donor
1 3 acceptor
1 3 donor
1 4 acceptor
1 4 donor
1 5 acceptor
1 6 acceptor
1 7 acceptor
1 8 acceptor
1 9 acceptor
3 7 9 19 anion
3 8 10 20 anion
6 1 11 12 13 14 15 rings

> <PUBCHEM_HEAVY_ATOM_COUNT>
20

> <PUBCHEM_ATOM_DEF_STEREO_COUNT>
5

> <PUBCHEM_ATOM_UDEF_STEREO_COUNT>
0

> <PUBCHEM_BOND_DEF_STEREO_COUNT>
0

> <PUBCHEM_BOND_UDEF_STEREO_COUNT>
0

> <PUBCHEM_ISOTOPIC_ATOM_COUNT>
0

> <PUBCHEM_COMPONENT_COUNT>
1

> <PUBCHEM_CACTVS_TAUTO_COUNT>
1

> <PUBCHEM_CONFORMER_ID>
0617A87E00000001

> <PUBCHEM_MMFF94_ENERGY>
48.469

> <PUBCHEM_FEATURE_SELFOVERLAP>
86.999

> <PUBCHEM_SHAPE_FINGERPRINT>
10062212 137 18343295964102232411
10922523 26 18339364046059658253
12173636 292 18131350770380659053
12633257 1 17821723953174941858
13583140 156 17274240816915748632
13675066 3 18343302556702672923
15442244 35 18338517443517680362
1601671 61 18334861615291360772
17492 89 18341895186325966711
18186145 218 17603585248439067683
19050596 39 18342177765203406059
192875 21 18262788696129521605
20279233 1 14046020788884427215
21503847 285 18186809058263476136
21709351 56 18410008823511555310
2255824 54 18261116296231404238
23402539 116 18262795160509138778
23557571 272 17632020835415756745
23558518 356 18336267928917351275
23559900 14 18342737373377066819
23598291 2 18409171004124982565
312423 11 18336838579746594903
3545911 37 18271527503178362801
4214541 1 18272369733359224443
474 4 18187929533478664417
5104073 3 18343862212442981299
58051976 100 18343024359271481015
633830 44 18040157309557163635
7615 1 18339643446635847429
7832392 63 18339080367712094149
9709674 26 18412270536231728251
9971528 1 18408037403800798232
9981440 41 17615968146245219144

> <PUBCHEM_SHAPE_MULTIPOLES>
352.9
8.95
2.59
1.19
5.9
0.82
0.14
-0.76
-1.63
-0.93
1.03
-0.23
0.42
-1.42

> <PUBCHEM_SHAPE_SELFOVERLAP>
714.092

> <PUBCHEM_SHAPE_VOLUME>
202.8

> <PUBCHEM_COORDINATE_TYPE>
2
5
10

$$$$
