13919424
  -OEChem-02172602433D

 46 47  0     1  0  0  0  0  0999 V2000
    4.7346   -1.9097    0.2406 O   0  0  0  0  0  0  0  0  0  0  0  0
   -5.8308    0.1068   -0.0764 O   0  0  0  0  0  0  0  0  0  0  0  0
    2.0040    0.1829   -0.6511 C   0  0  1  0  0  0  0  0  0  0  0  0
    2.4134    1.4470    0.1977 C   0  0  1  0  0  0  0  0  0  0  0  0
    2.4442   -1.1046    0.1284 C   0  0  2  0  0  0  0  0  0  0  0  0
    0.4663    0.1675   -0.8256 C   0  0  0  0  0  0  0  0  0  0  0  0
    3.9139    1.4554    0.5489 C   0  0  0  0  0  0  0  0  0  0  0  0
    2.6310    0.2150   -2.0628 C   0  0  0  0  0  0  0  0  0  0  0  0
    4.3369    0.1972    1.2847 C   0  0  0  0  0  0  0  0  0  0  0  0
    3.9249   -1.0207    0.4989 C   0  0  0  0  0  0  0  0  0  0  0  0
    2.0541    2.7986   -0.4364 C   0  0  0  0  0  0  0  0  0  0  0  0
    2.1537   -2.4361   -0.5724 C   0  0  0  0  0  0  0  0  0  0  0  0
   -0.2221    0.1903    0.5288 C   0  0  0  0  0  0  0  0  0  0  0  0
   -1.7205    0.1680    0.3667 C   0  0  0  0  0  0  0  0  0  0  0  0
   -2.4130    1.3653    0.2665 C   0  0  0  0  0  0  0  0  0  0  0  0
   -2.3825   -1.0499    0.3212 C   0  0  0  0  0  0  0  0  0  0  0  0
   -3.7998    1.3443    0.1173 C   0  0  0  0  0  0  0  0  0  0  0  0
   -3.7692   -1.0708    0.1721 C   0  0  0  0  0  0  0  0  0  0  0  0
   -4.4778    0.1262    0.0701 C   0  0  0  0  0  0  0  0  0  0  0  0
   -6.4613   -1.1725   -0.1172 C   0  0  0  0  0  0  0  0  0  0  0  0
    1.9204    1.4114    1.1745 H   0  0  0  0  0  0  0  0  0  0  0  0
    1.9544   -1.1514    1.1070 H   0  0  0  0  0  0  0  0  0  0  0  0
    0.1484   -0.7113   -1.3997 H   0  0  0  0  0  0  0  0  0  0  0  0
    0.1395    1.0242   -1.4285 H   0  0  0  0  0  0  0  0  0  0  0  0
    4.1457    2.3234    1.1788 H   0  0  0  0  0  0  0  0  0  0  0  0
    4.5122    1.5677   -0.3635 H   0  0  0  0  0  0  0  0  0  0  0  0
    3.7238    0.1740   -2.0296 H   0  0  0  0  0  0  0  0  0  0  0  0
    2.2899   -0.6290   -2.6719 H   0  0  0  0  0  0  0  0  0  0  0  0
    2.3473    1.1192   -2.6107 H   0  0  0  0  0  0  0  0  0  0  0  0
    3.8736    0.1414    2.2756 H   0  0  0  0  0  0  0  0  0  0  0  0
    5.4235    0.1894    1.4203 H   0  0  0  0  0  0  0  0  0  0  0  0
    2.3211    3.6179    0.2412 H   0  0  0  0  0  0  0  0  0  0  0  0
    2.5929    2.9676   -1.3734 H   0  0  0  0  0  0  0  0  0  0  0  0
    0.9821    2.8881   -0.6298 H   0  0  0  0  0  0  0  0  0  0  0  0
    2.6983   -2.5316   -1.5168 H   0  0  0  0  0  0  0  0  0  0  0  0
    2.4687   -3.2752    0.0594 H   0  0  0  0  0  0  0  0  0  0  0  0
    1.0869   -2.5714   -0.7675 H   0  0  0  0  0  0  0  0  0  0  0  0
    0.0054    1.0869    1.1109 H   0  0  0  0  0  0  0  0  0  0  0  0
    0.0423   -0.6622    1.1597 H   0  0  0  0  0  0  0  0  0  0  0  0
   -1.8944    2.3193    0.2992 H   0  0  0  0  0  0  0  0  0  0  0  0
   -1.8384   -1.9873    0.3972 H   0  0  0  0  0  0  0  0  0  0  0  0
   -4.3462    2.2800    0.0374 H   0  0  0  0  0  0  0  0  0  0  0  0
   -4.2325   -2.0511    0.1421 H   0  0  0  0  0  0  0  0  0  0  0  0
   -6.1325   -1.7557   -0.9842 H   0  0  0  0  0  0  0  0  0  0  0  0
   -7.5358   -0.9997   -0.2371 H   0  0  0  0  0  0  0  0  0  0  0  0
   -6.3280   -1.7169    0.8238 H   0  0  0  0  0  0  0  0  0  0  0  0
  1 10  2  0  0  0  0
  2 19  1  0  0  0  0
  2 20  1  0  0  0  0
  3  4  1  0  0  0  0
  3  5  1  0  0  0  0
  3  6  1  0  0  0  0
  3  8  1  0  0  0  0
  4  7  1  0  0  0  0
  4 11  1  0  0  0  0
  4 21  1  0  0  0  0
  5 10  1  0  0  0  0
  5 12  1  0  0  0  0
  5 22  1  0  0  0  0
  6 13  1  0  0  0  0
  6 23  1  0  0  0  0
  6 24  1  0  0  0  0
  7  9  1  0  0  0  0
  7 25  1  0  0  0  0
  7 26  1  0  0  0  0
  8 27  1  0  0  0  0
  8 28  1  0  0  0  0
  8 29  1  0  0  0  0
  9 10  1  0  0  0  0
  9 30  1  0  0  0  0
  9 31  1  0  0  0  0
 11 32  1  0  0  0  0
 11 33  1  0  0  0  0
 11 34  1  0  0  0  0
 12 35  1  0  0  0  0
 12 36  1  0  0  0  0
 12 37  1  0  0  0  0
 13 14  1  0  0  0  0
 13 38  1  0  0  0  0
 13 39  1  0  0  0  0
 14 15  2  0  0  0  0
 14 16  1  0  0  0  0
 15 17  1  0  0  0  0
 15 40  1  0  0  0  0
 16 18  2  0  0  0  0
 16 41  1  0  0  0  0
 17 19  2  0  0  0  0
 17 42  1  0  0  0  0
 18 19  1  0  0  0  0
 18 43  1  0  0  0  0
 20 44  1  0  0  0  0
 20 45  1  0  0  0  0
 20 46  1  0  0  0  0
M  END
> <PUBCHEM_COMPOUND_CID>
13919424

> <PUBCHEM_CONFORMER_RMSD>
0.8

> <PUBCHEM_CONFORMER_DIVERSEORDER>
2
1
6
9
8
3
7
4
5

> <PUBCHEM_MMFF94_PARTIAL_CHARGES>
17
1 -0.57
10 0.45
13 0.14
14 -0.14
15 -0.15
16 -0.15
17 -0.15
18 -0.15
19 0.08
2 -0.36
20 0.28
40 0.15
41 0.15
42 0.15
43 0.15
5 0.06
9 0.06

> <PUBCHEM_EFFECTIVE_ROTOR_COUNT>
5

> <PUBCHEM_PHARMACOPHORE_FEATURES>
4
1 1 acceptor
1 2 acceptor
6 14 15 16 17 18 19 rings
6 3 4 5 7 9 10 rings

> <PUBCHEM_HEAVY_ATOM_COUNT>
20

> <PUBCHEM_ATOM_DEF_STEREO_COUNT>
3

> <PUBCHEM_ATOM_UDEF_STEREO_COUNT>
0

> <PUBCHEM_BOND_DEF_STEREO_COUNT>
0

> <PUBCHEM_BOND_UDEF_STEREO_COUNT>
0

> <PUBCHEM_ISOTOPIC_ATOM_COUNT>
0

> <PUBCHEM_COMPONENT_COUNT>
1

> <PUBCHEM_CACTVS_TAUTO_COUNT>
3

> <PUBCHEM_CONFORMER_ID>
00D464C000000002

> <PUBCHEM_MMFF94_ENERGY>
67.6825

> <PUBCHEM_FEATURE_SELFOVERLAP>
20.297

> <PUBCHEM_SHAPE_FINGERPRINT>
10366900 7 18334588952769747016
11370993 70 18411415111642191155
11595378 159 14404915652272636803
11724838 91 18059004102930420999
12107183 9 17764592010593676731
12166972 35 18272371966494539160
12236239 1 17967530173402788721
12403260 363 18410293592971073537
12616971 3 17917988395674144909
128620 24 15697999634875942833
13167823 11 18411133641234449019
13224815 77 17274829042830756617
13533116 47 18408039610960515859
14341114 176 18412827988494388576
15196674 1 18411136918384231625
15788980 27 18131627872547743461
16752209 62 14779533570265271821
17349148 13 18412542098285996763
17492 89 18199752453538213071
17844677 252 18412551998787377601
1813 80 17095241389382184140
18186145 218 18201173073952778793
19377110 9 17917440843310426763
200 152 18273492373475462625
20369508 70 18410012139189468676
20645477 70 18410857654872553711
21267235 1 18412269410633330923
21792934 111 18411135823874544257
21859007 373 17604970556419458357
22224240 67 18271232920367640434
23402539 116 18412257316812397645
23557571 272 17704076161726971937
23559900 14 18410292540260708225
239999 70 17917439739013266606
3004659 81 18186802469830954315
3286 77 18334294253594091372
351380 180 18409727370241776393
3545911 37 18411982485337775465
4214541 1 18410573942766462609
4340502 62 18060135474599536623
465052 167 18130224861952726606
5104073 3 18341337734241109425
522135 26 8358263639595036576
5374978 207 18342458157769236857
6443956 14 18262801744651578018
67856867 119 18338231695048997313
7495541 125 17774998042316306043
9709674 26 18410018744970879051
9971528 1 17966970517462677084
9981440 41 17322682232550555177

> <PUBCHEM_SHAPE_MULTIPOLES>
399.85
12.27
2.17
1.06
15.64
0.19
0.36
-2.75
-1.44
-1.84
0.14
-1.14
0.05
-0.08

> <PUBCHEM_SHAPE_SELFOVERLAP>
826.66

> <PUBCHEM_SHAPE_VOLUME>
228.9

> <PUBCHEM_COORDINATE_TYPE>
2
5
10

$$$$
