5315132
  -OEChem-02172602473D

 34 35  0     1  0  0  0  0  0999 V2000
   -3.2330   -1.4762   -0.5920 P   0  0  0  0  0  0  0  0  0  0  0  0
    0.0563    1.8233    0.9357 O   0  0  0  0  0  0  0  0  0  0  0  0
   -2.8312    0.0510   -0.2579 O   0  0  0  0  0  0  0  0  0  0  0  0
   -1.6191   -0.4456    2.1491 O   0  0  0  0  0  0  0  0  0  0  0  0
   -1.0963    4.0995   -0.2890 O   0  0  0  0  0  0  0  0  0  0  0  0
   -2.6556   -1.7104   -2.0842 O   0  0  0  0  0  0  0  0  0  0  0  0
   -4.8305   -1.3779   -0.8224 O   0  0  0  0  0  0  0  0  0  0  0  0
    2.4719   -1.2479    2.1980 O   0  0  0  0  0  0  0  0  0  0  0  0
   -2.8009   -2.4877    0.4292 O   0  0  0  0  0  0  0  0  0  0  0  0
    4.7981   -0.8737   -1.7636 O   0  0  0  0  0  0  0  0  0  0  0  0
    1.5786    0.1057    0.5162 N   0  0  0  0  0  0  0  0  0  0  0  0
    3.6292   -1.0597    0.2247 N   0  0  0  0  0  0  0  0  0  0  0  0
   -1.4623    0.3638   -0.1157 C   0  0  2  0  0  0  0  0  0  0  0  0
   -0.7799   -0.4056    0.9968 C   0  0  1  0  0  0  0  0  0  0  0  0
   -1.2469    1.8006    0.3280 C   0  0  2  0  0  0  0  0  0  0  0  0
    0.4259    0.4767    1.2911 C   0  0  2  0  0  0  0  0  0  0  0  0
   -1.2970    2.7991   -0.8144 C   0  0  0  0  0  0  0  0  0  0  0  0
    2.5477   -0.7659    1.0658 C   0  0  0  0  0  0  0  0  0  0  0  0
    1.7384    0.6041   -0.7714 C   0  0  0  0  0  0  0  0  0  0  0  0
    2.7748    0.3150   -1.5610 C   0  0  0  0  0  0  0  0  0  0  0  0
    3.8319   -0.5879   -1.0629 C   0  0  0  0  0  0  0  0  0  0  0  0
   -0.9667    0.1717   -1.0731 H   0  0  0  0  0  0  0  0  0  0  0  0
   -0.5162   -1.4320    0.7264 H   0  0  0  0  0  0  0  0  0  0  0  0
   -1.9712    2.0924    1.0994 H   0  0  0  0  0  0  0  0  0  0  0  0
    0.6815    0.4745    2.3565 H   0  0  0  0  0  0  0  0  0  0  0  0
   -2.2682    2.7747   -1.3190 H   0  0  0  0  0  0  0  0  0  0  0  0
   -0.5219    2.6324   -1.5639 H   0  0  0  0  0  0  0  0  0  0  0  0
   -1.1265   -0.9042    2.8511 H   0  0  0  0  0  0  0  0  0  0  0  0
    0.9888    1.2684   -1.1636 H   0  0  0  0  0  0  0  0  0  0  0  0
   -1.8193    4.2818    0.3352 H   0  0  0  0  0  0  0  0  0  0  0  0
    4.3381   -1.6844    0.5990 H   0  0  0  0  0  0  0  0  0  0  0  0
    2.8676    0.7240   -2.5597 H   0  0  0  0  0  0  0  0  0  0  0  0
   -2.7277   -2.6021   -2.4864 H   0  0  0  0  0  0  0  0  0  0  0  0
   -5.3428   -2.2043   -0.9529 H   0  0  0  0  0  0  0  0  0  0  0  0
  1  3  1  0  0  0  0
  1  6  1  0  0  0  0
  1  7  1  0  0  0  0
  1  9  2  0  0  0  0
  2 15  1  0  0  0  0
  2 16  1  0  0  0  0
  3 13  1  0  0  0  0
  4 14  1  0  0  0  0
  4 28  1  0  0  0  0
  5 17  1  0  0  0  0
  5 30  1  0  0  0  0
  6 33  1  0  0  0  0
  7 34  1  0  0  0  0
  8 18  2  0  0  0  0
 10 21  2  0  0  0  0
 11 16  1  0  0  0  0
 11 18  1  0  0  0  0
 11 19  1  0  0  0  0
 12 18  1  0  0  0  0
 12 21  1  0  0  0  0
 12 31  1  0  0  0  0
 13 14  1  0  0  0  0
 13 15  1  0  0  0  0
 13 22  1  0  0  0  0
 14 16  1  0  0  0  0
 14 23  1  0  0  0  0
 15 17  1  0  0  0  0
 15 24  1  0  0  0  0
 16 25  1  0  0  0  0
 17 26  1  0  0  0  0
 17 27  1  0  0  0  0
 19 20  2  0  0  0  0
 19 29  1  0  0  0  0
 20 21  1  0  0  0  0
 20 32  1  0  0  0  0
M  END
> <PUBCHEM_COMPOUND_CID>
5315132

> <PUBCHEM_CONFORMER_RMSD>
0.8

> <PUBCHEM_CONFORMER_DIVERSEORDER>
1
6
7
4
5
8
3
2

> <PUBCHEM_MMFF94_PARTIAL_CHARGES>
28
1 1.51
10 -0.57
11 -0.47
12 -0.49
13 0.28
14 0.28
15 0.28
16 0.58
17 0.28
18 0.69
19 -0.04
2 -0.56
20 -0.14
21 0.62
28 0.4
29 0.15
3 -0.55
30 0.4
31 0.37
32 0.15
33 0.5
34 0.5
4 -0.68
5 -0.68
6 -0.77
7 -0.77
8 -0.57
9 -0.7

> <PUBCHEM_EFFECTIVE_ROTOR_COUNT>
5

> <PUBCHEM_PHARMACOPHORE_FEATURES>
14
1 10 acceptor
1 12 donor
1 2 acceptor
1 4 acceptor
1 4 donor
1 5 acceptor
1 5 donor
1 6 acceptor
1 7 acceptor
1 8 acceptor
1 9 acceptor
4 1 6 7 9 anion
5 2 13 14 15 16 rings
6 11 12 18 19 20 21 rings

> <PUBCHEM_HEAVY_ATOM_COUNT>
21

> <PUBCHEM_ATOM_DEF_STEREO_COUNT>
4

> <PUBCHEM_ATOM_UDEF_STEREO_COUNT>
0

> <PUBCHEM_BOND_DEF_STEREO_COUNT>
0

> <PUBCHEM_BOND_UDEF_STEREO_COUNT>
0

> <PUBCHEM_ISOTOPIC_ATOM_COUNT>
0

> <PUBCHEM_COMPONENT_COUNT>
1

> <PUBCHEM_CACTVS_TAUTO_COUNT>
3

> <PUBCHEM_CONFORMER_ID>
00511A3C00000001

> <PUBCHEM_MMFF94_ENERGY>
22.7101

> <PUBCHEM_FEATURE_SELFOVERLAP>
71.094

> <PUBCHEM_SHAPE_FINGERPRINT>
11578080 2 17825071923443901724
12173636 292 17532674355040474648
12202030 40 17418093200395881002
12251169 10 12247683776713546955
12553582 1 18408604777375485811
12633257 1 14619972502824774231
12714826 92 18130504154304893733
12788726 201 18262235526011578385
13583140 156 17413832537515689570
15842332 3 17751075804469110520
15906896 17 18044667394886175841
16752209 62 18337102363520969771
16945 1 18266728083088523177
17349148 13 17458613515657927920
1813 80 18271523212532440303
192875 21 17603294943526509080
200 152 18113344123838740290
20361792 2 18341614879547834979
20671657 53 18268420403646073131
21524375 3 17538845784821635825
22620623 9 18200584805367789861
23382010 3 16516520152783141411
23402539 116 18187938261115993172
23419403 2 16670427544282444392
23557571 272 18342162384757097456
23598288 3 17970915457819738337
27216 239 12180427793098884422
5845 1 9325544653293363025
603831 33 18114185207400295682
633830 44 17026031475100433374
7164475 11 18188759531592530597
7615 1 17604984824173818352
81228 2 18341327821324909409

> <PUBCHEM_SHAPE_MULTIPOLES>
373.23
7.13
2.8
1.83
2.35
3.01
0.19
-5.18
-3.6
-2.75
-0.42
0.75
-0.68
-0.61

> <PUBCHEM_SHAPE_SELFOVERLAP>
769.159

> <PUBCHEM_SHAPE_VOLUME>
214.9

> <PUBCHEM_COORDINATE_TYPE>
2
5
10

$$$$
