44257805
  -OEChem-02172602413D

 51 54  0     1  0  0  0  0  0999 V2000
    3.8543   -0.3560    0.4891 O   0  0  0  0  0  0  0  0  0  0  0  0
    3.2299    1.7790   -0.2595 O   0  0  0  0  0  0  0  0  0  0  0  0
    7.7687    0.2322   -0.7240 O   0  0  0  0  0  0  0  0  0  0  0  0
    6.7966   -2.4406   -0.2151 O   0  0  0  0  0  0  0  0  0  0  0  0
    5.8350    1.6497    0.7012 O   0  0  0  0  0  0  0  0  0  0  0  0
    2.8594   -2.7651    1.3306 O   0  0  0  0  0  0  0  0  0  0  0  0
   -2.7202   -0.3755   -0.2222 O   0  0  0  0  0  0  0  0  0  0  0  0
   -7.3915    0.7946    0.3307 O   0  0  0  0  0  0  0  0  0  0  0  0
   -5.4538    2.5547    0.5130 O   0  0  0  0  0  0  0  0  0  0  0  0
   -6.1066   -3.6824   -0.5961 O   0  0  0  0  0  0  0  0  0  0  0  0
    6.3970   -0.1404   -0.8252 C   0  0  1  0  0  0  0  0  0  0  0  0
    6.1039   -1.2587    0.1784 C   0  0  1  0  0  0  0  0  0  0  0  0
    5.5033    1.0720   -0.5653 C   0  0  1  0  0  0  0  0  0  0  0  0
    4.5979   -1.5515    0.2304 C   0  0  1  0  0  0  0  0  0  0  0  0
    4.0388    0.6366   -0.5227 C   0  0  1  0  0  0  0  0  0  0  0  0
    4.2589   -2.5503    1.3322 C   0  0  0  0  0  0  0  0  0  0  0  0
    1.8777    1.5735   -0.1953 C   0  0  0  0  0  0  0  0  0  0  0  0
    1.1817    1.8740    0.9756 C   0  0  0  0  0  0  0  0  0  0  0  0
    1.1961    1.0644   -1.3007 C   0  0  0  0  0  0  0  0  0  0  0  0
   -0.8776    1.1566   -0.0645 C   0  0  0  0  0  0  0  0  0  0  0  0
   -0.1960    1.6655    1.0409 C   0  0  0  0  0  0  0  0  0  0  0  0
   -0.1815    0.8558   -1.2353 C   0  0  0  0  0  0  0  0  0  0  0  0
   -2.3363    0.9375    0.0042 C   0  0  0  0  0  0  0  0  0  0  0  0
   -5.0439    0.2708    0.0648 C   0  0  0  0  0  0  0  0  0  0  0  0
   -4.0569   -0.6816   -0.1833 C   0  0  0  0  0  0  0  0  0  0  0  0
   -3.1914    1.9438    0.2461 C   0  0  0  0  0  0  0  0  0  0  0  0
   -4.6412    1.6668    0.2944 C   0  0  0  0  0  0  0  0  0  0  0  0
   -6.3907   -0.0983    0.0928 C   0  0  0  0  0  0  0  0  0  0  0  0
   -4.4123   -2.0122   -0.4062 C   0  0  0  0  0  0  0  0  0  0  0  0
   -5.7564   -2.3849   -0.3791 C   0  0  0  0  0  0  0  0  0  0  0  0
   -6.7432   -1.4299   -0.1300 C   0  0  0  0  0  0  0  0  0  0  0  0
    6.2411   -0.5104   -1.8463 H   0  0  0  0  0  0  0  0  0  0  0  0
    6.4834   -0.9795    1.1683 H   0  0  0  0  0  0  0  0  0  0  0  0
    5.6686    1.8535   -1.3142 H   0  0  0  0  0  0  0  0  0  0  0  0
    4.2488   -1.9704   -0.7233 H   0  0  0  0  0  0  0  0  0  0  0  0
    3.7687    0.2142   -1.4993 H   0  0  0  0  0  0  0  0  0  0  0  0
    4.5337   -2.1534    2.3151 H   0  0  0  0  0  0  0  0  0  0  0  0
    4.7631   -3.5086    1.1749 H   0  0  0  0  0  0  0  0  0  0  0  0
    7.9245    0.9492   -1.3621 H   0  0  0  0  0  0  0  0  0  0  0  0
    6.4670   -2.7049   -1.0909 H   0  0  0  0  0  0  0  0  0  0  0  0
    5.5169    1.0557    1.4016 H   0  0  0  0  0  0  0  0  0  0  0  0
    2.6655   -3.3991    2.0418 H   0  0  0  0  0  0  0  0  0  0  0  0
    1.7081    2.2692    1.8402 H   0  0  0  0  0  0  0  0  0  0  0  0
    1.7174    0.8412   -2.2271 H   0  0  0  0  0  0  0  0  0  0  0  0
   -0.7200    1.9013    1.9640 H   0  0  0  0  0  0  0  0  0  0  0  0
   -0.6988    0.4642   -2.1079 H   0  0  0  0  0  0  0  0  0  0  0  0
   -2.8680    2.9660    0.4080 H   0  0  0  0  0  0  0  0  0  0  0  0
   -3.6455   -2.7580   -0.6004 H   0  0  0  0  0  0  0  0  0  0  0  0
   -7.7913   -1.7192   -0.1086 H   0  0  0  0  0  0  0  0  0  0  0  0
   -7.0287    1.6821    0.4735 H   0  0  0  0  0  0  0  0  0  0  0  0
   -7.0745   -3.7615   -0.5413 H   0  0  0  0  0  0  0  0  0  0  0  0
  1 14  1  0  0  0  0
  1 15  1  0  0  0  0
  2 15  1  0  0  0  0
  2 17  1  0  0  0  0
  3 11  1  0  0  0  0
  3 39  1  0  0  0  0
  4 12  1  0  0  0  0
  4 40  1  0  0  0  0
  5 13  1  0  0  0  0
  5 41  1  0  0  0  0
  6 16  1  0  0  0  0
  6 42  1  0  0  0  0
  7 23  1  0  0  0  0
  7 25  1  0  0  0  0
  8 28  1  0  0  0  0
  8 50  1  0  0  0  0
  9 27  2  0  0  0  0
 10 30  1  0  0  0  0
 10 51  1  0  0  0  0
 11 12  1  0  0  0  0
 11 13  1  0  0  0  0
 11 32  1  0  0  0  0
 12 14  1  0  0  0  0
 12 33  1  0  0  0  0
 13 15  1  0  0  0  0
 13 34  1  0  0  0  0
 14 16  1  0  0  0  0
 14 35  1  0  0  0  0
 15 36  1  0  0  0  0
 16 37  1  0  0  0  0
 16 38  1  0  0  0  0
 17 18  2  0  0  0  0
 17 19  1  0  0  0  0
 18 21  1  0  0  0  0
 18 43  1  0  0  0  0
 19 22  2  0  0  0  0
 19 44  1  0  0  0  0
 20 21  2  0  0  0  0
 20 22  1  0  0  0  0
 20 23  1  0  0  0  0
 21 45  1  0  0  0  0
 22 46  1  0  0  0  0
 23 26  2  0  0  0  0
 24 25  1  0  0  0  0
 24 27  1  0  0  0  0
 24 28  2  0  0  0  0
 25 29  2  0  0  0  0
 26 27  1  0  0  0  0
 26 47  1  0  0  0  0
 28 31  1  0  0  0  0
 29 30  1  0  0  0  0
 29 48  1  0  0  0  0
 30 31  2  0  0  0  0
 31 49  1  0  0  0  0
M  END
> <PUBCHEM_COMPOUND_CID>
44257805

> <PUBCHEM_CONFORMER_RMSD>
0.8

> <PUBCHEM_CONFORMER_DIVERSEORDER>
1
150
228
210
224
167
90
192
62
104
69
217
212
70
158
55
193
215
64
7
170
74
219
116
107
13
199
58
51
115
175
43
134
174
200
56
208
44
151
203
214
27
32
173
148
4
126
147
135
29
9
119
196
124
127
137
45
114
160
112
195
39
76
42
222
18
123
142
105
163
221
81
154
120
14
141
220
166
65
129
211
204
3
53
78
227
59
47
10
205
8
109
161
25
176
72
100
118
117
206
16
26
22
121
184
101
6
194
41
20
106
182
34
216
12
15
82
98
61
2
66
198
108
111
94
156
93
17
71
21
60
225
231
80
68
33
88
168
35
130
28
229
157
183
178
63
185
187
164
143
133
84
202
91
188
165
73
5
85
209
50
99
52
146
95
75
86
122
169
149
177
103
201
46
48
191
125
40
189
19
186
79
171
152
36
138
145
49
162
213
97
83
218
38
159
54
139
190
113
136
181
89
11
132
226
92
37
172
155
30
128
77
197
180
153
57
144
96
131
102
207
230
31
23
223
87
179
24
110
67
140

> <PUBCHEM_MMFF94_PARTIAL_CHARGES>
44
1 -0.56
10 -0.53
11 0.28
12 0.28
13 0.28
14 0.28
15 0.56
16 0.28
17 0.08
18 -0.15
19 -0.15
2 -0.36
20 0.03
21 -0.15
22 -0.15
23 0.05
24 0.09
25 0.08
26 -0.14
27 0.47
28 0.08
29 -0.15
3 -0.68
30 0.08
31 -0.15
39 0.4
4 -0.68
40 0.4
41 0.4
42 0.4
43 0.15
44 0.15
45 0.15
46 0.15
47 0.15
48 0.15
49 0.15
5 -0.68
50 0.45
51 0.45
6 -0.68
7 -0.16
8 -0.53
9 -0.57

> <PUBCHEM_EFFECTIVE_ROTOR_COUNT>
5.2

> <PUBCHEM_PHARMACOPHORE_FEATURES>
18
1 1 acceptor
1 10 donor
1 2 acceptor
1 3 acceptor
1 3 donor
1 4 acceptor
1 4 donor
1 5 acceptor
1 5 donor
1 6 acceptor
1 6 donor
1 7 acceptor
1 8 donor
1 9 acceptor
6 1 11 12 13 14 15 rings
6 17 18 19 20 21 22 rings
6 24 25 28 29 30 31 rings
6 7 23 24 25 26 27 rings

> <PUBCHEM_HEAVY_ATOM_COUNT>
31

> <PUBCHEM_ATOM_DEF_STEREO_COUNT>
2

> <PUBCHEM_ATOM_UDEF_STEREO_COUNT>
3

> <PUBCHEM_BOND_DEF_STEREO_COUNT>
0

> <PUBCHEM_BOND_UDEF_STEREO_COUNT>
0

> <PUBCHEM_ISOTOPIC_ATOM_COUNT>
0

> <PUBCHEM_COMPONENT_COUNT>
1

> <PUBCHEM_CACTVS_TAUTO_COUNT>
12

> <PUBCHEM_CONFORMER_ID>
02A3520D00000001

> <PUBCHEM_MMFF94_ENERGY>
104.0018

> <PUBCHEM_FEATURE_SELFOVERLAP>
91.451

> <PUBCHEM_SHAPE_FINGERPRINT>
10 15 17203610419130702316
10299344 5 18335706031119640844
10319926 262 18130780170995635913
10595046 47 18337394940846332996
10939801 23 18199185268815083694
11456790 92 17632309999581284075
11524674 6 16917067768063725783
11646440 116 15770060531580269368
117089 54 17973169719119969003
11719270 70 17775289356540937222
11796584 16 18343024350185732701
11991303 11 14346088545786207841
12107183 9 18193840332429296585
12236239 1 18411703162525016284
12596602 18 18202565081670337176
13533116 47 18408886273742818524
1361 2 18114183025725994074
1361 4 18339924921465170262
13692114 37 18337667612400733378
13782708 43 18059291071608302517
14347332 77 18261104154438135653
14394314 77 18410014330108385241
15119646 104 18041000618249420606
15183329 4 18113335310317825273
15250474 111 18408316683738302739
15352257 5 18411419513920028214
15799311 1 18335713727574434707
17134984 74 17822007644687593634
17857418 61 18409167718791453431
19841028 212 18339080377299444298
20028762 73 18339078191029488074
20567600 247 18334856129858247754
21033648 29 15338837517290672097
21130935 74 18343302565709319186
21641784 216 14201668724348836023
23516275 137 18195832698627471634
23522609 53 18120124781904388852
23559900 14 18269829964948042417
23569943 247 17678451961858755554
25222932 49 18412542133073432294
3004659 81 18335138704652755512
335352 9 18412822479159390053
397830 11 17560227158596812104
4046055 25 18333733502791332052
4073 2 18188777274276744464
439807 62 18410857689796651523
46194498 28 16950563328667574036
465052 167 18131354115996795476
5104073 3 17846221098460449401
559249 180 18411982434568307645
5718773 13 18128533954798009271
999808 66 18114475534789972219

> <PUBCHEM_SHAPE_MULTIPOLES>
579.27
22.1
3.17
1
2.75
2.17
-0.04
9.83
1.32
-1.63
-0.51
0.76
0.05
-1.96

> <PUBCHEM_SHAPE_SELFOVERLAP>
1270.937

> <PUBCHEM_SHAPE_VOLUME>
309.2

> <PUBCHEM_COORDINATE_TYPE>
2
5
10

$$$$
