101019623
  -OEChem-02172602433D

 28 28  0     0  0  0  0  0  0999 V2000
    2.6271   -0.5675   -0.9001 F   0  0  0  0  0  0  0  0  0  0  0  0
    3.2434    0.0526    1.0979 F   0  0  0  0  0  0  0  0  0  0  0  0
    3.7561    1.2836   -0.6283 F   0  0  0  0  0  0  0  0  0  0  0  0
    0.5287    0.4010    0.6592 O   0  0  0  0  0  0  0  0  0  0  0  0
   -1.2722   -1.8168    0.6194 C   0  0  0  0  0  0  0  0  0  0  0  0
   -1.6924   -0.4221    0.2908 C   0  0  0  0  0  0  0  0  0  0  0  0
   -0.5129   -2.4806   -0.5371 C   0  0  0  0  0  0  0  0  0  0  0  0
   -0.7729    0.6262    0.3251 C   0  0  0  0  0  0  0  0  0  0  0  0
   -3.0211   -0.1734   -0.0528 C   0  0  0  0  0  0  0  0  0  0  0  0
   -0.0587   -3.8879   -0.1837 C   0  0  0  0  0  0  0  0  0  0  0  0
   -1.1822    1.9233    0.0158 C   0  0  0  0  0  0  0  0  0  0  0  0
   -3.4304    1.1238   -0.3621 C   0  0  0  0  0  0  0  0  0  0  0  0
   -2.5111    2.1722   -0.3278 C   0  0  0  0  0  0  0  0  0  0  0  0
    1.5049    1.2631    0.0778 C   0  0  0  0  0  0  0  0  0  0  0  0
    2.7938    0.5023   -0.0942 C   0  0  0  0  0  0  0  0  0  0  0  0
   -0.6496   -1.8078    1.5234 H   0  0  0  0  0  0  0  0  0  0  0  0
   -2.1483   -2.4263    0.8766 H   0  0  0  0  0  0  0  0  0  0  0  0
   -1.1550   -2.5233   -1.4255 H   0  0  0  0  0  0  0  0  0  0  0  0
    0.3653   -1.8869   -0.8140 H   0  0  0  0  0  0  0  0  0  0  0  0
   -3.7491   -0.9797   -0.0861 H   0  0  0  0  0  0  0  0  0  0  0  0
    0.6169   -3.8761    0.6775 H   0  0  0  0  0  0  0  0  0  0  0  0
   -0.9142   -4.5265    0.0584 H   0  0  0  0  0  0  0  0  0  0  0  0
    0.4736   -4.3380   -1.0274 H   0  0  0  0  0  0  0  0  0  0  0  0
   -0.5091    2.7743    0.0601 H   0  0  0  0  0  0  0  0  0  0  0  0
   -4.4653    1.3178   -0.6286 H   0  0  0  0  0  0  0  0  0  0  0  0
   -2.8320    3.1830   -0.5619 H   0  0  0  0  0  0  0  0  0  0  0  0
    1.6657    2.1222    0.7381 H   0  0  0  0  0  0  0  0  0  0  0  0
    1.2021    1.6154   -0.9160 H   0  0  0  0  0  0  0  0  0  0  0  0
  1 15  1  0  0  0  0
  2 15  1  0  0  0  0
  3 15  1  0  0  0  0
  4  8  1  0  0  0  0
  4 14  1  0  0  0  0
  5  6  1  0  0  0  0
  5  7  1  0  0  0  0
  5 16  1  0  0  0  0
  5 17  1  0  0  0  0
  6  8  1  0  0  0  0
  6  9  2  0  0  0  0
  7 10  1  0  0  0  0
  7 18  1  0  0  0  0
  7 19  1  0  0  0  0
  8 11  2  0  0  0  0
  9 12  1  0  0  0  0
  9 20  1  0  0  0  0
 10 21  1  0  0  0  0
 10 22  1  0  0  0  0
 10 23  1  0  0  0  0
 11 13  1  0  0  0  0
 11 24  1  0  0  0  0
 12 13  2  0  0  0  0
 12 25  1  0  0  0  0
 13 26  1  0  0  0  0
 14 15  1  0  0  0  0
 14 27  1  0  0  0  0
 14 28  1  0  0  0  0
M  END
> <PUBCHEM_COMPOUND_CID>
101019623

> <PUBCHEM_CONFORMER_RMSD>
0.6

> <PUBCHEM_CONFORMER_DIVERSEORDER>
3
71
67
44
56
65
61
66
60
70
72
63
52
13
68
27
39
43
54
62
21
51
31
59
19
50
53
40
24
32
57
48
34
64
58
5
33
55
42
37
7
23
30
15
47
16
12
46
38
25
17
35
14
6
26
1
28
20
49
2
36
29
45
69
41
11
18
4
22
8
9
10

> <PUBCHEM_MMFF94_PARTIAL_CHARGES>
17
1 -0.34
11 -0.15
12 -0.15
13 -0.15
14 0.28
15 1.02
2 -0.34
20 0.15
24 0.15
25 0.15
26 0.15
3 -0.34
4 -0.36
5 0.14
6 -0.14
8 0.08
9 -0.15

> <PUBCHEM_EFFECTIVE_ROTOR_COUNT>
5

> <PUBCHEM_PHARMACOPHORE_FEATURES>
3
1 10 hydrophobe
1 4 acceptor
6 6 8 9 11 12 13 rings

> <PUBCHEM_HEAVY_ATOM_COUNT>
15

> <PUBCHEM_ATOM_DEF_STEREO_COUNT>
0

> <PUBCHEM_ATOM_UDEF_STEREO_COUNT>
0

> <PUBCHEM_BOND_DEF_STEREO_COUNT>
0

> <PUBCHEM_BOND_UDEF_STEREO_COUNT>
0

> <PUBCHEM_ISOTOPIC_ATOM_COUNT>
0

> <PUBCHEM_COMPONENT_COUNT>
1

> <PUBCHEM_CACTVS_TAUTO_COUNT>
4

> <PUBCHEM_CONFORMER_ID>
06056FE700000003

> <PUBCHEM_MMFF94_ENERGY>
33.0199

> <PUBCHEM_FEATURE_SELFOVERLAP>
15.223

> <PUBCHEM_SHAPE_FINGERPRINT>
1 1 18267299824850288959
116883 192 17621872519596955047
12173636 292 18409726261861159213
12500047 106 18411975897343214032
12553582 1 17545041962382905802
12592029 89 18337676295969550403
13380535 76 18335415704352372771
13897977 150 18194122919590942311
15006816 218 18195806263155900842
15309172 13 18411708672883362473
15669948 3 18263360450934522992
15852999 172 18202561770107944942
16945 1 18334012800450828777
18186145 218 18199474276700525852
193761 8 17690559689525410385
20510252 161 18343305868355053985
20645476 183 18040725795897639094
20871998 184 18337400455926556755
20871999 31 18268711795375093053
21501502 16 17981038623032942509
21524375 3 18261946358727309185
23402539 116 18340472431063728213
23557571 272 17983024632874516212
23559900 14 18272088319134788424
23598291 2 17821721741683567426
23728640 28 18337656603386665114
257057 1 17475503349373208915
2748010 2 18339373980276971815
3071541 12 17762339115648051057
3071541 158 17327456922165430591
3071541 250 17476364898754408607
43471831 8 18337668616557631203
69090 78 18410568513521547017
7364860 26 17908697333087682267
81228 2 17836916064519121355
81539 233 18190172395982300103
90525 40 18334858315938474987

> <PUBCHEM_SHAPE_MULTIPOLES>
281
5.26
3.37
0.81
2.93
4.12
-0.03
-3.25
0.57
-0.4
0.44
0.24
0.06
0.2

> <PUBCHEM_SHAPE_SELFOVERLAP>
574.288

> <PUBCHEM_SHAPE_VOLUME>
164.3

> <PUBCHEM_COORDINATE_TYPE>
2
5
10

$$$$
