101297593
  -OEChem-02172602473D

 82 86  0     1  0  0  0  0  0999 V2000
    3.0132    3.2174    0.2019 O   0  0  0  0  0  0  0  0  0  0  0  0
   -6.5283   -0.9871   -1.2311 O   0  0  0  0  0  0  0  0  0  0  0  0
    2.7874    0.9286   -2.7437 O   0  0  0  0  0  0  0  0  0  0  0  0
    6.8068   -0.0331    0.1672 O   0  0  0  0  0  0  0  0  0  0  0  0
   -0.9305    0.7482    0.1491 C   0  0  2  0  0  0  0  0  0  0  0  0
   -1.6761   -0.5837   -0.2607 C   0  0  1  0  0  0  0  0  0  0  0  0
   -3.2476   -0.5113   -0.5339 C   0  0  2  0  0  0  0  0  0  0  0  0
    0.5547    0.3503    0.7230 C   0  0  1  0  0  0  0  0  0  0  0  0
   -3.9170    0.2639    0.6522 C   0  0  1  0  0  0  0  0  0  0  0  0
   -1.7789    1.4937    1.2189 C   0  0  0  0  0  0  0  0  0  0  0  0
    1.2833   -0.5735   -0.2693 C   0  0  0  0  0  0  0  0  0  0  0  0
   -3.2607    1.6414    0.8684 C   0  0  0  0  0  0  0  0  0  0  0  0
   -5.4990    0.2946    0.6508 C   0  0  0  0  0  0  0  0  0  0  0  0
    2.8148   -0.5676   -0.3257 C   0  0  1  0  0  0  0  0  0  0  0  0
    1.4442    1.6013    1.0048 C   0  0  0  0  0  0  0  0  0  0  0  0
   -0.8800   -1.3510   -1.3392 C   0  0  0  0  0  0  0  0  0  0  0  0
    3.4411    0.8693   -0.4473 C   0  0  1  0  0  0  0  0  0  0  0  0
   -3.8091   -1.9776   -0.5570 C   0  0  0  0  0  0  0  0  0  0  0  0
    2.3892    1.9788   -0.1410 C   0  0  2  0  0  0  0  0  0  0  0  0
   -0.7802    1.7071   -1.0637 C   0  0  0  0  0  0  0  0  0  0  0  0
    0.6070   -1.3229   -1.1612 C   0  0  0  0  0  0  0  0  0  0  0  0
   -6.0944   -1.0528    0.1246 C   0  0  2  0  0  0  0  0  0  0  0  0
   -3.5818    0.1284   -1.9033 C   0  0  0  0  0  0  0  0  0  0  0  0
   -5.1001   -2.2024    0.2386 C   0  0  0  0  0  0  0  0  0  0  0  0
    0.4298   -0.4068    2.0809 C   0  0  0  0  0  0  0  0  0  0  0  0
    3.4562   -1.3975    0.8065 C   0  0  0  0  0  0  0  0  0  0  0  0
    4.6824    1.0254    0.4694 C   0  0  0  0  0  0  0  0  0  0  0  0
    4.9862   -1.5464    0.6536 C   0  0  0  0  0  0  0  0  0  0  0  0
   -6.0870    1.5079   -0.0999 C   0  0  0  0  0  0  0  0  0  0  0  0
   -5.9624    0.4374    2.1308 C   0  0  0  0  0  0  0  0  0  0  0  0
    3.9123    1.0814   -1.9124 C   0  0  0  0  0  0  0  0  0  0  0  0
    5.6036   -0.1744    0.3894 C   0  0  0  0  0  0  0  0  0  0  0  0
    5.5725   -2.0978    1.9615 C   0  0  0  0  0  0  0  0  0  0  0  0
    5.3483   -2.4892   -0.5025 C   0  0  0  0  0  0  0  0  0  0  0  0
   -1.6235   -1.2200    0.6320 H   0  0  0  0  0  0  0  0  0  0  0  0
   -3.6458   -0.3164    1.5498 H   0  0  0  0  0  0  0  0  0  0  0  0
   -1.7483    0.9652    2.1753 H   0  0  0  0  0  0  0  0  0  0  0  0
   -1.3680    2.4916    1.4100 H   0  0  0  0  0  0  0  0  0  0  0  0
   -3.7409    2.1616    1.7045 H   0  0  0  0  0  0  0  0  0  0  0  0
   -3.3862    2.2924   -0.0011 H   0  0  0  0  0  0  0  0  0  0  0  0
    3.0860   -1.1112   -1.2411 H   0  0  0  0  0  0  0  0  0  0  0  0
    2.0607    1.4382    1.9001 H   0  0  0  0  0  0  0  0  0  0  0  0
    0.8279    2.4648    1.2786 H   0  0  0  0  0  0  0  0  0  0  0  0
   -1.0755   -0.9482   -2.3365 H   0  0  0  0  0  0  0  0  0  0  0  0
   -1.1957   -2.3999   -1.3594 H   0  0  0  0  0  0  0  0  0  0  0  0
   -3.0769   -2.6851   -0.1490 H   0  0  0  0  0  0  0  0  0  0  0  0
   -3.9669   -2.3017   -1.5942 H   0  0  0  0  0  0  0  0  0  0  0  0
    1.7980    2.1956   -1.0317 H   0  0  0  0  0  0  0  0  0  0  0  0
   -0.1672    1.2858   -1.8646 H   0  0  0  0  0  0  0  0  0  0  0  0
   -0.3310    2.6586   -0.7613 H   0  0  0  0  0  0  0  0  0  0  0  0
   -1.7311    1.9839   -1.5109 H   0  0  0  0  0  0  0  0  0  0  0  0
    1.1595   -1.9402   -1.8667 H   0  0  0  0  0  0  0  0  0  0  0  0
   -6.9909   -1.3083    0.7027 H   0  0  0  0  0  0  0  0  0  0  0  0
   -3.5144    1.2152   -1.9008 H   0  0  0  0  0  0  0  0  0  0  0  0
   -4.5988   -0.0998   -2.2255 H   0  0  0  0  0  0  0  0  0  0  0  0
   -2.9447   -0.2435   -2.7081 H   0  0  0  0  0  0  0  0  0  0  0  0
   -5.5595   -3.1342   -0.1144 H   0  0  0  0  0  0  0  0  0  0  0  0
   -4.8496   -2.3642    1.2945 H   0  0  0  0  0  0  0  0  0  0  0  0
    0.0024    0.2265    2.8635 H   0  0  0  0  0  0  0  0  0  0  0  0
    1.3983   -0.7164    2.4764 H   0  0  0  0  0  0  0  0  0  0  0  0
   -0.1651   -1.3206    2.0125 H   0  0  0  0  0  0  0  0  0  0  0  0
    3.2610   -0.9135    1.7682 H   0  0  0  0  0  0  0  0  0  0  0  0
    2.9886   -2.3896    0.8577 H   0  0  0  0  0  0  0  0  0  0  0  0
    4.3957    1.1466    1.5205 H   0  0  0  0  0  0  0  0  0  0  0  0
    5.2608    1.9164    0.1952 H   0  0  0  0  0  0  0  0  0  0  0  0
   -5.8027    2.4557    0.3694 H   0  0  0  0  0  0  0  0  0  0  0  0
   -5.7682    1.5486   -1.1435 H   0  0  0  0  0  0  0  0  0  0  0  0
   -7.1829    1.4697   -0.0964 H   0  0  0  0  0  0  0  0  0  0  0  0
   -5.6123   -0.4016    2.7427 H   0  0  0  0  0  0  0  0  0  0  0  0
   -5.5946    1.3606    2.5892 H   0  0  0  0  0  0  0  0  0  0  0  0
   -7.0566    0.4599    2.1998 H   0  0  0  0  0  0  0  0  0  0  0  0
    4.6716    0.3495   -2.2069 H   0  0  0  0  0  0  0  0  0  0  0  0
    4.3257    2.0857   -2.0566 H   0  0  0  0  0  0  0  0  0  0  0  0
    2.3116    3.8808    0.3171 H   0  0  0  0  0  0  0  0  0  0  0  0
   -6.9206   -1.8467   -1.4605 H   0  0  0  0  0  0  0  0  0  0  0  0
    5.1370   -3.0717    2.2107 H   0  0  0  0  0  0  0  0  0  0  0  0
    6.6591   -2.2235    1.8908 H   0  0  0  0  0  0  0  0  0  0  0  0
    5.3831   -1.4170    2.7996 H   0  0  0  0  0  0  0  0  0  0  0  0
    5.0757   -2.0694   -1.4760 H   0  0  0  0  0  0  0  0  0  0  0  0
    6.4279   -2.6773   -0.5358 H   0  0  0  0  0  0  0  0  0  0  0  0
    4.8464   -3.4571   -0.3958 H   0  0  0  0  0  0  0  0  0  0  0  0
    3.0838    1.0631   -3.6598 H   0  0  0  0  0  0  0  0  0  0  0  0
  1 19  1  0  0  0  0
  1 74  1  0  0  0  0
  2 22  1  0  0  0  0
  2 75  1  0  0  0  0
  3 31  1  0  0  0  0
  3 82  1  0  0  0  0
  4 32  2  0  0  0  0
  5  6  1  0  0  0  0
  5  8  1  0  0  0  0
  5 10  1  0  0  0  0
  5 20  1  0  0  0  0
  6  7  1  0  0  0  0
  6 16  1  0  0  0  0
  6 35  1  0  0  0  0
  7  9  1  0  0  0  0
  7 18  1  0  0  0  0
  7 23  1  0  0  0  0
  8 11  1  0  0  0  0
  8 15  1  0  0  0  0
  8 25  1  0  0  0  0
  9 12  1  0  0  0  0
  9 13  1  0  0  0  0
  9 36  1  0  0  0  0
 10 12  1  0  0  0  0
 10 37  1  0  0  0  0
 10 38  1  0  0  0  0
 11 14  1  0  0  0  0
 11 21  2  0  0  0  0
 12 39  1  0  0  0  0
 12 40  1  0  0  0  0
 13 22  1  0  0  0  0
 13 29  1  0  0  0  0
 13 30  1  0  0  0  0
 14 17  1  0  0  0  0
 14 26  1  0  0  0  0
 14 41  1  0  0  0  0
 15 19  1  0  0  0  0
 15 42  1  0  0  0  0
 15 43  1  0  0  0  0
 16 21  1  0  0  0  0
 16 44  1  0  0  0  0
 16 45  1  0  0  0  0
 17 19  1  0  0  0  0
 17 27  1  0  0  0  0
 17 31  1  0  0  0  0
 18 24  1  0  0  0  0
 18 46  1  0  0  0  0
 18 47  1  0  0  0  0
 19 48  1  0  0  0  0
 20 49  1  0  0  0  0
 20 50  1  0  0  0  0
 20 51  1  0  0  0  0
 21 52  1  0  0  0  0
 22 24  1  0  0  0  0
 22 53  1  0  0  0  0
 23 54  1  0  0  0  0
 23 55  1  0  0  0  0
 23 56  1  0  0  0  0
 24 57  1  0  0  0  0
 24 58  1  0  0  0  0
 25 59  1  0  0  0  0
 25 60  1  0  0  0  0
 25 61  1  0  0  0  0
 26 28  1  0  0  0  0
 26 62  1  0  0  0  0
 26 63  1  0  0  0  0
 27 32  1  0  0  0  0
 27 64  1  0  0  0  0
 27 65  1  0  0  0  0
 28 32  1  0  0  0  0
 28 33  1  0  0  0  0
 28 34  1  0  0  0  0
 29 66  1  0  0  0  0
 29 67  1  0  0  0  0
 29 68  1  0  0  0  0
 30 69  1  0  0  0  0
 30 70  1  0  0  0  0
 30 71  1  0  0  0  0
 31 72  1  0  0  0  0
 31 73  1  0  0  0  0
 33 76  1  0  0  0  0
 33 77  1  0  0  0  0
 33 78  1  0  0  0  0
 34 79  1  0  0  0  0
 34 80  1  0  0  0  0
 34 81  1  0  0  0  0
M  END
> <PUBCHEM_COMPOUND_CID>
101297593

> <PUBCHEM_CONFORMER_RMSD>
0.8

> <PUBCHEM_CONFORMER_DIVERSEORDER>
1

> <PUBCHEM_MMFF94_PARTIAL_CHARGES>
19
1 -0.68
11 -0.28
14 0.14
16 0.14
19 0.28
2 -0.68
21 -0.29
22 0.28
27 0.06
28 0.06
3 -0.68
31 0.28
32 0.45
4 -0.57
52 0.15
74 0.4
75 0.4
8 0.14
82 0.4

> <PUBCHEM_EFFECTIVE_ROTOR_COUNT>
3.4

> <PUBCHEM_PHARMACOPHORE_FEATURES>
14
1 1 acceptor
1 1 donor
1 2 acceptor
1 2 donor
1 3 acceptor
1 3 donor
1 4 acceptor
3 13 29 30 hydrophobe
3 28 33 34 hydrophobe
6 14 17 26 27 28 32 rings
6 5 6 7 9 10 12 rings
6 5 6 8 11 16 21 rings
6 7 9 13 18 22 24 rings
6 8 11 14 15 17 19 rings

> <PUBCHEM_HEAVY_ATOM_COUNT>
34

> <PUBCHEM_ATOM_DEF_STEREO_COUNT>
9

> <PUBCHEM_ATOM_UDEF_STEREO_COUNT>
0

> <PUBCHEM_BOND_DEF_STEREO_COUNT>
0

> <PUBCHEM_BOND_UDEF_STEREO_COUNT>
0

> <PUBCHEM_ISOTOPIC_ATOM_COUNT>
0

> <PUBCHEM_COMPONENT_COUNT>
1

> <PUBCHEM_CACTVS_TAUTO_COUNT>
2

> <PUBCHEM_CONFORMER_ID>
0609ADB900000001

> <PUBCHEM_MMFF94_ENERGY>
168.2288

> <PUBCHEM_FEATURE_SELFOVERLAP>
71.137

> <PUBCHEM_SHAPE_FINGERPRINT>
11578080 2 16734699548260691284
11719270 70 18060417984753348631
12107698 1 18334573529721821017
12166972 35 18186803573943790580
12236239 1 18408885126743470289
12403259 415 13984663680768170877
12422481 6 18200878383240288255
12616971 3 18410012135031521551
12633257 1 18201720656402302421
12741549 16 17095788972533899836
12788726 201 17489602163727650264
13224815 77 18131353033506618629
13533116 47 18187365433070015992
13782708 43 17167863053996176411
13811026 1 18343862200048507030
14341114 176 18412548686602434987
14790565 3 17917158307250362537
14849402 71 18337111293344138232
14856354 85 18341337781639113311
14955137 171 18059857225575502866
15131766 46 17752505397430373181
15142383 8 18335697200429665804
15183329 4 18413389847483963955
15238133 3 17203336589443348105
15788980 27 18113056025943201519
15799311 1 18337966670008033635
17349148 13 18273215279339091634
17844677 252 17458061555998192591
17857418 61 18412544310246901851
17980427 23 17130965677863306608
1813 80 17968383326012629510
20028762 73 18272366464520724158
21033648 29 17168132464494232749
21130935 74 17846779581057402286
21267235 1 18341897368865003142
23522609 53 18194993861570986969
23559900 14 18272362088444226833
23569914 152 15436450983079712643
23569943 247 16662033730375881291
3004659 81 18410015416603047374
3411729 13 17416391277225348984
345986 75 18191291699151932952
34797466 226 16371010762614964749
350125 39 18343300370601534608
3680242 22 18272660029776754930
392239 28 18341059570821554451
4015057 19 17531255019021440729
4073 2 18042408095932829058
4098825 35 17822009804871494508
439807 62 18261957479042067891
46194498 28 16805324405606848798
469060 322 17346053189917121393
5104073 3 18201724002582720835
6081469 158 18260540127080608023
6086070 43 18200576065441924421
67856867 119 18341611567991341712
7226269 152 16702303455427845003
7495541 125 18408605889444779257

> <PUBCHEM_SHAPE_MULTIPOLES>
676.23
16.09
2.4
1.77
4.49
0.14
0.21
-4.75
-2.59
-1.23
-0.05
-0.17
0.05
-1.64

> <PUBCHEM_SHAPE_SELFOVERLAP>
1436.837

> <PUBCHEM_SHAPE_VOLUME>
372

> <PUBCHEM_COORDINATE_TYPE>
2
5
10

$$$$
