11440788
  -OEChem-02172602443D

 63 64  0     1  0  0  0  0  0999 V2000
   -0.6291    2.7710   -0.4242 O   0  0  0  0  0  0  0  0  0  0  0  0
   -0.9163   -0.6498    0.5330 O   0  0  0  0  0  0  0  0  0  0  0  0
   -2.7026    3.2319    0.5526 O   0  0  0  0  0  0  0  0  0  0  0  0
    4.0520   -0.6168   -0.1591 O   0  0  0  0  0  0  0  0  0  0  0  0
    3.6699    1.5704    0.3830 O   0  0  0  0  0  0  0  0  0  0  0  0
    1.8805    0.0858    0.1666 N   0  0  0  0  0  0  0  0  0  0  0  0
    0.8479    1.0448    0.4673 C   0  0  2  0  0  0  0  0  0  0  0  0
   -0.3162    0.4248    1.2492 C   0  0  1  0  0  0  0  0  0  0  0  0
    0.3940    1.8297   -0.7761 C   0  0  1  0  0  0  0  0  0  0  0  0
   -1.3833    1.4861    1.5008 C   0  0  0  0  0  0  0  0  0  0  0  0
   -1.7757    2.2036    0.2085 C   0  0  2  0  0  0  0  0  0  0  0  0
   -0.0300    0.9909   -1.9822 C   0  0  0  0  0  0  0  0  0  0  0  0
    1.4387   -1.2767   -0.1204 C   0  0  0  0  0  0  0  0  0  0  0  0
    3.2395    0.4421    0.1502 C   0  0  0  0  0  0  0  0  0  0  0  0
   -1.6452   -1.5084    1.3985 C   0  0  0  0  0  0  0  0  0  0  0  0
   -3.6185    3.4793   -0.5041 C   0  0  0  0  0  0  0  0  0  0  0  0
    5.4576   -0.3438   -0.1998 C   0  0  0  0  0  0  0  0  0  0  0  0
   -2.2526   -2.6174    0.5907 C   0  0  0  0  0  0  0  0  0  0  0  0
   -4.8187    2.5573   -0.3523 C   0  0  0  0  0  0  0  0  0  0  0  0
   -4.0236    4.9453   -0.4828 C   0  0  0  0  0  0  0  0  0  0  0  0
    6.1697   -1.6482   -0.5510 C   0  0  0  0  0  0  0  0  0  0  0  0
    5.8962    0.1545    1.1766 C   0  0  0  0  0  0  0  0  0  0  0  0
    5.7168    0.7151   -1.2704 C   0  0  0  0  0  0  0  0  0  0  0  0
   -3.5263   -2.4643    0.0428 C   0  0  0  0  0  0  0  0  0  0  0  0
   -1.5436   -3.8013    0.3870 C   0  0  0  0  0  0  0  0  0  0  0  0
   -4.0910   -3.4951   -0.7083 C   0  0  0  0  0  0  0  0  0  0  0  0
   -2.1083   -4.8320   -0.3642 C   0  0  0  0  0  0  0  0  0  0  0  0
   -3.3820   -4.6788   -0.9119 C   0  0  0  0  0  0  0  0  0  0  0  0
    1.2926    1.7939    1.1393 H   0  0  0  0  0  0  0  0  0  0  0  0
    0.0696    0.0554    2.2095 H   0  0  0  0  0  0  0  0  0  0  0  0
    1.2418    2.4390   -1.1147 H   0  0  0  0  0  0  0  0  0  0  0  0
   -0.9756    2.2287    2.2004 H   0  0  0  0  0  0  0  0  0  0  0  0
   -2.2833    1.0906    1.9804 H   0  0  0  0  0  0  0  0  0  0  0  0
   -2.2472    1.4799   -0.4665 H   0  0  0  0  0  0  0  0  0  0  0  0
    0.8100    0.4227   -2.3919 H   0  0  0  0  0  0  0  0  0  0  0  0
   -0.3991    1.6510   -2.7759 H   0  0  0  0  0  0  0  0  0  0  0  0
   -0.8487    0.3027   -1.7612 H   0  0  0  0  0  0  0  0  0  0  0  0
    0.6733   -1.3102   -0.8953 H   0  0  0  0  0  0  0  0  0  0  0  0
    2.2594   -1.8806   -0.5190 H   0  0  0  0  0  0  0  0  0  0  0  0
    1.1447   -1.7717    0.8085 H   0  0  0  0  0  0  0  0  0  0  0  0
   -0.9793   -1.9315    2.1615 H   0  0  0  0  0  0  0  0  0  0  0  0
   -2.4426   -0.9752    1.9257 H   0  0  0  0  0  0  0  0  0  0  0  0
   -3.1407    3.2949   -1.4758 H   0  0  0  0  0  0  0  0  0  0  0  0
   -4.5234    1.5042   -0.3979 H   0  0  0  0  0  0  0  0  0  0  0  0
   -5.5586    2.7389   -1.1380 H   0  0  0  0  0  0  0  0  0  0  0  0
   -5.3007    2.7041    0.6208 H   0  0  0  0  0  0  0  0  0  0  0  0
   -3.1413    5.5858   -0.5885 H   0  0  0  0  0  0  0  0  0  0  0  0
   -4.7238    5.1783   -1.2907 H   0  0  0  0  0  0  0  0  0  0  0  0
   -4.4900    5.2082    0.4731 H   0  0  0  0  0  0  0  0  0  0  0  0
    5.8203   -2.0334   -1.5159 H   0  0  0  0  0  0  0  0  0  0  0  0
    5.9467   -2.4239    0.1907 H   0  0  0  0  0  0  0  0  0  0  0  0
    7.2557   -1.5198   -0.6021 H   0  0  0  0  0  0  0  0  0  0  0  0
    6.9866    0.0919    1.2753 H   0  0  0  0  0  0  0  0  0  0  0  0
    5.4527   -0.4530    1.9740 H   0  0  0  0  0  0  0  0  0  0  0  0
    5.6445    1.1970    1.3864 H   0  0  0  0  0  0  0  0  0  0  0  0
    6.7829    0.7476   -1.5255 H   0  0  0  0  0  0  0  0  0  0  0  0
    5.4542    1.7347   -0.9776 H   0  0  0  0  0  0  0  0  0  0  0  0
    5.1596    0.4896   -2.1872 H   0  0  0  0  0  0  0  0  0  0  0  0
   -4.0868   -1.5452    0.1918 H   0  0  0  0  0  0  0  0  0  0  0  0
   -0.5498   -3.9324    0.8069 H   0  0  0  0  0  0  0  0  0  0  0  0
   -5.0823   -3.3755   -1.1356 H   0  0  0  0  0  0  0  0  0  0  0  0
   -1.5561   -5.7536   -0.5234 H   0  0  0  0  0  0  0  0  0  0  0  0
   -3.8215   -5.4812   -1.4972 H   0  0  0  0  0  0  0  0  0  0  0  0
  1  9  1  0  0  0  0
  1 11  1  0  0  0  0
  2  8  1  0  0  0  0
  2 15  1  0  0  0  0
  3 11  1  0  0  0  0
  3 16  1  0  0  0  0
  4 14  1  0  0  0  0
  4 17  1  0  0  0  0
  5 14  2  0  0  0  0
  6  7  1  0  0  0  0
  6 13  1  0  0  0  0
  6 14  1  0  0  0  0
  7  8  1  0  0  0  0
  7  9  1  0  0  0  0
  7 29  1  0  0  0  0
  8 10  1  0  0  0  0
  8 30  1  0  0  0  0
  9 12  1  0  0  0  0
  9 31  1  0  0  0  0
 10 11  1  0  0  0  0
 10 32  1  0  0  0  0
 10 33  1  0  0  0  0
 11 34  1  0  0  0  0
 12 35  1  0  0  0  0
 12 36  1  0  0  0  0
 12 37  1  0  0  0  0
 13 38  1  0  0  0  0
 13 39  1  0  0  0  0
 13 40  1  0  0  0  0
 15 18  1  0  0  0  0
 15 41  1  0  0  0  0
 15 42  1  0  0  0  0
 16 19  1  0  0  0  0
 16 20  1  0  0  0  0
 16 43  1  0  0  0  0
 17 21  1  0  0  0  0
 17 22  1  0  0  0  0
 17 23  1  0  0  0  0
 18 24  2  0  0  0  0
 18 25  1  0  0  0  0
 19 44  1  0  0  0  0
 19 45  1  0  0  0  0
 19 46  1  0  0  0  0
 20 47  1  0  0  0  0
 20 48  1  0  0  0  0
 20 49  1  0  0  0  0
 21 50  1  0  0  0  0
 21 51  1  0  0  0  0
 21 52  1  0  0  0  0
 22 53  1  0  0  0  0
 22 54  1  0  0  0  0
 22 55  1  0  0  0  0
 23 56  1  0  0  0  0
 23 57  1  0  0  0  0
 23 58  1  0  0  0  0
 24 26  1  0  0  0  0
 24 59  1  0  0  0  0
 25 27  2  0  0  0  0
 25 60  1  0  0  0  0
 26 28  2  0  0  0  0
 26 61  1  0  0  0  0
 27 28  1  0  0  0  0
 27 62  1  0  0  0  0
 28 63  1  0  0  0  0
M  END
> <PUBCHEM_COMPOUND_CID>
11440788

> <PUBCHEM_CONFORMER_RMSD>
1

> <PUBCHEM_CONFORMER_DIVERSEORDER>
1
16
7
14
10
17
12
8
19
2
6
9
5
13
15
11
4
3
18

> <PUBCHEM_MMFF94_PARTIAL_CHARGES>
26
1 -0.56
11 0.56
13 0.3
14 0.78
15 0.42
16 0.28
17 0.28
18 -0.14
2 -0.56
24 -0.15
25 -0.15
26 -0.15
27 -0.15
28 -0.15
3 -0.56
4 -0.43
5 -0.57
59 0.15
6 -0.66
60 0.15
61 0.15
62 0.15
63 0.15
7 0.3
8 0.28
9 0.28

> <PUBCHEM_EFFECTIVE_ROTOR_COUNT>
10.2

> <PUBCHEM_PHARMACOPHORE_FEATURES>
8
1 1 acceptor
1 2 acceptor
1 3 acceptor
1 5 acceptor
3 16 19 20 hydrophobe
4 17 21 22 23 hydrophobe
6 1 7 8 9 10 11 rings
6 18 24 25 26 27 28 rings

> <PUBCHEM_HEAVY_ATOM_COUNT>
28

> <PUBCHEM_ATOM_DEF_STEREO_COUNT>
4

> <PUBCHEM_ATOM_UDEF_STEREO_COUNT>
0

> <PUBCHEM_BOND_DEF_STEREO_COUNT>
0

> <PUBCHEM_BOND_UDEF_STEREO_COUNT>
0

> <PUBCHEM_ISOTOPIC_ATOM_COUNT>
0

> <PUBCHEM_COMPONENT_COUNT>
1

> <PUBCHEM_CACTVS_TAUTO_COUNT>
1

> <PUBCHEM_CONFORMER_ID>
00AE929400000001

> <PUBCHEM_MMFF94_ENERGY>
89.6235

> <PUBCHEM_FEATURE_SELFOVERLAP>
40.64

> <PUBCHEM_SHAPE_FINGERPRINT>
10483366 6 18411408528406814415
11445158 3 14563403686242596790
11552529 35 18271255971298823514
11720765 8 17836358625345921871
11991303 11 18262238824419907237
12058002 1 17487083105232056744
12160290 23 18050043027345283387
12597179 24 18128258887120758751
12788726 201 18334286608784621291
12977781 61 17845107189674997206
13004483 165 18196648716701195450
13134695 92 17760927742097184895
13692114 37 18197476485769005559
13757389 114 18262813860422563596
138480 1 16681753265688490283
13899415 180 17981310507063124143
14556957 393 17971775495056011020
14790565 3 18049720724541688993
14866123 147 18410855434654316035
15131766 46 15070632654158768078
15420108 30 18118394051579520945
15775530 1 18127963311867428449
15878777 1 7985122533470033161
15927050 60 18267299820666676111
15950262 2 15504879089655326517
17539 30 18411134779316152587
18365409 1 18410568462768242213
19427546 20 18337118955444000972
19930381 70 16753251212070688794
20602899 9 18198626536271958785
21307412 95 17912665514235586518
21344244 181 18056204561911866511
21703447 108 18124867113430991336
23419403 2 17417237883550240457
23929065 36 18267845328899911592
255183 313 18270420325403281281
3103668 31 18335973251885717647
38695281 34 18120372047766604185
4017518 198 18122913027617767854
4058900 60 17909556047126562357
4409770 3 18410572882093987987
46194498 28 17102262007164697215
463206 1 17975977884069025794
5080951 261 17969198119557139040
59755656 520 18262797337656391068
613672 6 17975972386827073650
6669772 16 17982172223462842919
7164475 11 18264773349083163628
9658208 31 18341601569550089512

> <PUBCHEM_SHAPE_MULTIPOLES>
541.9
11.68
6.79
1.25
20.27
2.38
0.05
0.38
1.99
-15.36
1.58
0.17
-0.12
-0.07

> <PUBCHEM_SHAPE_SELFOVERLAP>
1105.812

> <PUBCHEM_SHAPE_VOLUME>
314.6

> <PUBCHEM_COORDINATE_TYPE>
2
5
10

$$$$
