101736166
  -OEChem-02172602483D

 45 47  0     0  0  0  0  0  0999 V2000
   -1.7606   -0.0016    0.0126 O   0  0  0  0  0  0  0  0  0  0  0  0
    0.2741   -0.9964    0.2295 O   0  0  0  0  0  0  0  0  0  0  0  0
    5.3934   -2.4160    0.3546 O   0  0  0  0  0  0  0  0  0  0  0  0
    0.1286    1.3350   -0.0800 N   0  0  0  0  0  0  0  0  0  0  0  0
   -0.3106    3.7832    0.2077 C   0  0  0  0  0  0  0  0  0  0  0  0
   -0.7937    2.4578   -0.3659 C   0  0  0  0  0  0  0  0  0  0  0  0
    1.0976    4.0929   -0.2739 C   0  0  0  0  0  0  0  0  0  0  0  0
    1.5038    1.6251   -0.0621 C   0  0  0  0  0  0  0  0  0  0  0  0
    1.9735    2.8830   -0.1822 C   0  0  0  0  0  0  0  0  0  0  0  0
    2.5218    0.5653    0.0470 C   0  0  0  0  0  0  0  0  0  0  0  0
   -0.3883    0.0262    0.0694 C   0  0  0  0  0  0  0  0  0  0  0  0
    2.9969    0.1810    1.3010 C   0  0  0  0  0  0  0  0  0  0  0  0
    3.0113   -0.0528   -1.1036 C   0  0  0  0  0  0  0  0  0  0  0  0
    3.9616   -0.8210    1.4043 C   0  0  0  0  0  0  0  0  0  0  0  0
    3.9762   -1.0548   -1.0004 C   0  0  0  0  0  0  0  0  0  0  0  0
   -2.3774   -1.2873    0.1499 C   0  0  0  0  0  0  0  0  0  0  0  0
    4.4514   -1.4389    0.2536 C   0  0  0  0  0  0  0  0  0  0  0  0
   -3.8671   -1.1279    0.0640 C   0  0  0  0  0  0  0  0  0  0  0  0
   -4.6125   -0.9001    1.2206 C   0  0  0  0  0  0  0  0  0  0  0  0
   -4.5062   -1.2070   -1.1733 C   0  0  0  0  0  0  0  0  0  0  0  0
   -5.9971   -0.7514    1.1402 C   0  0  0  0  0  0  0  0  0  0  0  0
   -5.8908   -1.0582   -1.2539 C   0  0  0  0  0  0  0  0  0  0  0  0
   -6.6361   -0.8305   -0.0971 C   0  0  0  0  0  0  0  0  0  0  0  0
    5.8502   -3.0054   -0.8619 C   0  0  0  0  0  0  0  0  0  0  0  0
   -0.3164    3.7258    1.3041 H   0  0  0  0  0  0  0  0  0  0  0  0
   -0.9927    4.5926   -0.0750 H   0  0  0  0  0  0  0  0  0  0  0  0
   -1.7898    2.2531    0.0388 H   0  0  0  0  0  0  0  0  0  0  0  0
   -0.8935    2.5186   -1.4568 H   0  0  0  0  0  0  0  0  0  0  0  0
    1.0806    4.4414   -1.3130 H   0  0  0  0  0  0  0  0  0  0  0  0
    1.5184    4.9009    0.3348 H   0  0  0  0  0  0  0  0  0  0  0  0
    3.0449    3.0732   -0.2058 H   0  0  0  0  0  0  0  0  0  0  0  0
    2.6241    0.6525    2.2071 H   0  0  0  0  0  0  0  0  0  0  0  0
    2.6492    0.2356   -2.0877 H   0  0  0  0  0  0  0  0  0  0  0  0
    4.3278   -1.1162    2.3838 H   0  0  0  0  0  0  0  0  0  0  0  0
    4.3126   -1.4928   -1.9339 H   0  0  0  0  0  0  0  0  0  0  0  0
   -2.0997   -1.7296    1.1147 H   0  0  0  0  0  0  0  0  0  0  0  0
   -2.0221   -1.9549   -0.6448 H   0  0  0  0  0  0  0  0  0  0  0  0
   -4.1257   -0.8342    2.1900 H   0  0  0  0  0  0  0  0  0  0  0  0
   -3.9360   -1.3818   -2.0818 H   0  0  0  0  0  0  0  0  0  0  0  0
   -6.5776   -0.5734    2.0407 H   0  0  0  0  0  0  0  0  0  0  0  0
   -6.3885   -1.1190   -2.2173 H   0  0  0  0  0  0  0  0  0  0  0  0
   -7.7142   -0.7145   -0.1599 H   0  0  0  0  0  0  0  0  0  0  0  0
    6.5955   -3.7618   -0.5946 H   0  0  0  0  0  0  0  0  0  0  0  0
    6.3541   -2.2717   -1.5002 H   0  0  0  0  0  0  0  0  0  0  0  0
    5.0410   -3.5253   -1.3859 H   0  0  0  0  0  0  0  0  0  0  0  0
  1 11  1  0  0  0  0
  1 16  1  0  0  0  0
  2 11  2  0  0  0  0
  3 17  1  0  0  0  0
  3 24  1  0  0  0  0
  4  6  1  0  0  0  0
  4  8  1  0  0  0  0
  4 11  1  0  0  0  0
  5  6  1  0  0  0  0
  5  7  1  0  0  0  0
  5 25  1  0  0  0  0
  5 26  1  0  0  0  0
  6 27  1  0  0  0  0
  6 28  1  0  0  0  0
  7  9  1  0  0  0  0
  7 29  1  0  0  0  0
  7 30  1  0  0  0  0
  8  9  2  0  0  0  0
  8 10  1  0  0  0  0
  9 31  1  0  0  0  0
 10 12  2  0  0  0  0
 10 13  1  0  0  0  0
 12 14  1  0  0  0  0
 12 32  1  0  0  0  0
 13 15  2  0  0  0  0
 13 33  1  0  0  0  0
 14 17  2  0  0  0  0
 14 34  1  0  0  0  0
 15 17  1  0  0  0  0
 15 35  1  0  0  0  0
 16 18  1  0  0  0  0
 16 36  1  0  0  0  0
 16 37  1  0  0  0  0
 18 19  2  0  0  0  0
 18 20  1  0  0  0  0
 19 21  1  0  0  0  0
 19 38  1  0  0  0  0
 20 22  2  0  0  0  0
 20 39  1  0  0  0  0
 21 23  2  0  0  0  0
 21 40  1  0  0  0  0
 22 23  1  0  0  0  0
 22 41  1  0  0  0  0
 23 42  1  0  0  0  0
 24 43  1  0  0  0  0
 24 44  1  0  0  0  0
 24 45  1  0  0  0  0
M  END
> <PUBCHEM_COMPOUND_CID>
101736166

> <PUBCHEM_CONFORMER_RMSD>
0.8

> <PUBCHEM_CONFORMER_DIVERSEORDER>
1
45
51
40
56
14
20
28
27
25
19
12
41
48
33
32
3
36
9
42
24
26
55
8
35
50
6
10
30
49
52
15
21
38
22
29
23
43
18
44
37
16
4
54
31
53
17
13
7
46
2
5
34
11
39
47

> <PUBCHEM_MMFF94_PARTIAL_CHARGES>
33
1 -0.43
10 0.03
11 0.78
12 -0.15
13 -0.15
14 -0.15
15 -0.15
16 0.42
17 0.08
18 -0.14
19 -0.15
2 -0.57
20 -0.15
21 -0.15
22 -0.15
23 -0.15
24 0.28
3 -0.36
31 0.15
32 0.15
33 0.15
34 0.15
35 0.15
38 0.15
39 0.15
4 -0.47
40 0.15
41 0.15
42 0.15
6 0.3
7 0.14
8 0.08
9 -0.29

> <PUBCHEM_EFFECTIVE_ROTOR_COUNT>
6.8

> <PUBCHEM_PHARMACOPHORE_FEATURES>
5
1 2 acceptor
1 3 acceptor
6 10 12 13 14 15 17 rings
6 18 19 20 21 22 23 rings
6 4 5 6 7 8 9 rings

> <PUBCHEM_HEAVY_ATOM_COUNT>
24

> <PUBCHEM_ATOM_DEF_STEREO_COUNT>
0

> <PUBCHEM_ATOM_UDEF_STEREO_COUNT>
0

> <PUBCHEM_BOND_DEF_STEREO_COUNT>
0

> <PUBCHEM_BOND_UDEF_STEREO_COUNT>
0

> <PUBCHEM_ISOTOPIC_ATOM_COUNT>
0

> <PUBCHEM_COMPONENT_COUNT>
1

> <PUBCHEM_CACTVS_TAUTO_COUNT>
1

> <PUBCHEM_CONFORMER_ID>
06105EE600000001

> <PUBCHEM_MMFF94_ENERGY>
73.2014

> <PUBCHEM_FEATURE_SELFOVERLAP>
25.373

> <PUBCHEM_SHAPE_FINGERPRINT>
10411042 1 18410294675286709068
10906281 52 18045786947111202608
11265709 11 18410576171643427588
11796584 16 17458059391324619539
11991303 11 17537719893710372325
12107183 9 18342468015331091681
12166972 35 18201719583140468353
12236239 1 17989487455222824043
12293681 25 17485089592192829180
12422481 6 17489588918169523287
12553582 1 18409449189288885786
12616971 3 18201726206365237995
12760667 363 18409450250056254047
12788726 201 18115022992216413402
13533116 47 18272930565598272547
13540713 4 18197477568739626584
13631057 29 18265336110912527170
13911852 28 18339923710284464118
14347329 18 16154805991990819575
14739800 52 17058363923889869065
14866123 147 18122347878577248041
15042514 8 18267026042234183120
15081414 286 18337107981259500408
15420108 30 17623552556326752392
15885798 251 18411138038990770825
17349148 13 17988372550215682611
17492 89 18123753320931902159
17818456 19 17846232059301267665
17844677 252 18336266842812201921
1813 80 18343026587863518524
18222031 100 18413670218501144135
20369508 70 18261386797271014736
20645477 70 18264204888786402093
20832881 197 18261112976216163099
21033648 29 17314490708700466069
21279426 13 18187916262721050549
21478907 32 18337952268834542160
22849341 161 18339376213818176313
2303208 19 17531250612717142411
23536364 44 18189043210341262349
23559900 14 18337952415006056683
3004659 81 17894912919214424486
3103668 31 18117273649975532045
314173 85 18411133636575355115
3421961 26 18339360867847364272
34797466 226 16153995763284544007
437815 12 18335419054321336167
463206 1 18334855043316866298
465052 167 18411426128201695871
513202 73 18198624324348275798
5207 123 18412261722805115679
54076057 255 14418128509442171951
543368 44 11241973681423066743
6442390 28 9295282872024242920
70251023 43 18335425625927208922
77188 2 18410856555820466036
7970288 3 18411135818614816622
8863177 126 17751091408381287571
9841814 1 18188480384736417520
9971528 1 18342735264674556145

> <PUBCHEM_SHAPE_MULTIPOLES>
471.32
14.49
3.88
1.16
14.82
4.64
-0.08
-15.42
0.42
-4.58
0.56
0.2
-0.42
0.17

> <PUBCHEM_SHAPE_SELFOVERLAP>
1008.177

> <PUBCHEM_SHAPE_VOLUME>
259

> <PUBCHEM_COORDINATE_TYPE>
2
5
10

$$$$
