101231693
  -OEChem-02172602483D

 49 51  0     0  0  0  0  0  0999 V2000
    4.0936    1.2294   -0.7371 S   0  0  0  0  0  0  0  0  0  0  0  0
   -4.8477   -0.6320    0.7435 Si  0  0  0  0  0  0  0  0  0  0  0  0
   -2.0370    3.6403    0.0122 N   0  0  0  0  0  0  0  0  0  0  0  0
    2.8126   -0.6490    0.4805 N   0  0  0  0  0  0  0  0  0  0  0  0
   -5.1462   -1.7483   -0.8404 C   0  0  0  0  0  0  0  0  0  0  0  0
   -4.0063   -2.7805   -0.9874 C   0  0  0  0  0  0  0  0  0  0  0  0
   -5.1880   -0.8700   -2.1106 C   0  0  0  0  0  0  0  0  0  0  0  0
   -6.4880   -2.5042   -0.7149 C   0  0  0  0  0  0  0  0  0  0  0  0
   -4.8234   -1.7703    2.2015 C   0  0  0  0  0  0  0  0  0  0  0  0
   -6.2630    0.5559    0.8331 C   0  0  0  0  0  0  0  0  0  0  0  0
   -3.2262    0.2331    0.5084 C   0  0  0  0  0  0  0  0  0  0  0  0
   -2.1760    0.7947    0.3559 C   0  0  0  0  0  0  0  0  0  0  0  0
   -0.9259    1.4660    0.1740 C   0  0  0  0  0  0  0  0  0  0  0  0
    0.2465    0.7103    0.1639 C   0  0  0  0  0  0  0  0  0  0  0  0
   -0.8652    2.8496    0.0076 C   0  0  0  0  0  0  0  0  0  0  0  0
    1.4795    1.3382   -0.0124 C   0  0  0  0  0  0  0  0  0  0  0  0
    0.3678    3.4775   -0.1689 C   0  0  0  0  0  0  0  0  0  0  0  0
    1.5401    2.7218   -0.1789 C   0  0  0  0  0  0  0  0  0  0  0  0
    2.6924    0.5574   -0.0224 C   0  0  0  0  0  0  0  0  0  0  0  0
    4.9662   -0.2074   -0.3539 C   0  0  0  0  0  0  0  0  0  0  0  0
    4.1113   -1.1013    0.2980 C   0  0  0  0  0  0  0  0  0  0  0  0
    6.3104   -0.5210   -0.6114 C   0  0  0  0  0  0  0  0  0  0  0  0
    4.6223   -2.3527    0.7054 C   0  0  0  0  0  0  0  0  0  0  0  0
    6.7909   -1.7660   -0.1978 C   0  0  0  0  0  0  0  0  0  0  0  0
    5.9595   -2.6715    0.4522 C   0  0  0  0  0  0  0  0  0  0  0  0
   -4.1584   -3.4025   -1.8776 H   0  0  0  0  0  0  0  0  0  0  0  0
   -3.9536   -3.4568   -0.1268 H   0  0  0  0  0  0  0  0  0  0  0  0
   -3.0281   -2.2975   -1.0930 H   0  0  0  0  0  0  0  0  0  0  0  0
   -5.3434   -1.4867   -3.0039 H   0  0  0  0  0  0  0  0  0  0  0  0
   -4.2527   -0.3176   -2.2569 H   0  0  0  0  0  0  0  0  0  0  0  0
   -6.0049   -0.1404   -2.0766 H   0  0  0  0  0  0  0  0  0  0  0  0
   -6.5057   -3.1654    0.1587 H   0  0  0  0  0  0  0  0  0  0  0  0
   -6.6628   -3.1313   -1.5974 H   0  0  0  0  0  0  0  0  0  0  0  0
   -7.3387   -1.8184   -0.6335 H   0  0  0  0  0  0  0  0  0  0  0  0
   -5.7699   -2.3082    2.3096 H   0  0  0  0  0  0  0  0  0  0  0  0
   -4.0231   -2.5121    2.1231 H   0  0  0  0  0  0  0  0  0  0  0  0
   -4.6597   -1.2099    3.1275 H   0  0  0  0  0  0  0  0  0  0  0  0
   -7.2209    0.0363    0.9304 H   0  0  0  0  0  0  0  0  0  0  0  0
   -6.1605    1.2153    1.7010 H   0  0  0  0  0  0  0  0  0  0  0  0
   -6.3150    1.1919   -0.0555 H   0  0  0  0  0  0  0  0  0  0  0  0
    0.1910   -0.3697    0.2908 H   0  0  0  0  0  0  0  0  0  0  0  0
    0.4294    4.5558   -0.2941 H   0  0  0  0  0  0  0  0  0  0  0  0
    2.4670    3.2754   -0.2935 H   0  0  0  0  0  0  0  0  0  0  0  0
   -2.9472    3.2200    0.1389 H   0  0  0  0  0  0  0  0  0  0  0  0
   -1.9653    4.6421   -0.1092 H   0  0  0  0  0  0  0  0  0  0  0  0
    6.9653    0.1810   -1.1183 H   0  0  0  0  0  0  0  0  0  0  0  0
    3.9816   -3.0676    1.2140 H   0  0  0  0  0  0  0  0  0  0  0  0
    7.8284   -2.0287   -0.3874 H   0  0  0  0  0  0  0  0  0  0  0  0
    6.3508   -3.6352    0.7666 H   0  0  0  0  0  0  0  0  0  0  0  0
  1 19  1  0  0  0  0
  1 20  1  0  0  0  0
  2  5  1  0  0  0  0
  2  9  1  0  0  0  0
  2 10  1  0  0  0  0
  2 11  1  0  0  0  0
  3 15  1  0  0  0  0
  3 44  1  0  0  0  0
  3 45  1  0  0  0  0
  4 19  2  0  0  0  0
  4 21  1  0  0  0  0
  5  6  1  0  0  0  0
  5  7  1  0  0  0  0
  5  8  1  0  0  0  0
  6 26  1  0  0  0  0
  6 27  1  0  0  0  0
  6 28  1  0  0  0  0
  7 29  1  0  0  0  0
  7 30  1  0  0  0  0
  7 31  1  0  0  0  0
  8 32  1  0  0  0  0
  8 33  1  0  0  0  0
  8 34  1  0  0  0  0
  9 35  1  0  0  0  0
  9 36  1  0  0  0  0
  9 37  1  0  0  0  0
 10 38  1  0  0  0  0
 10 39  1  0  0  0  0
 10 40  1  0  0  0  0
 11 12  3  0  0  0  0
 12 13  1  0  0  0  0
 13 14  1  0  0  0  0
 13 15  2  0  0  0  0
 14 16  2  0  0  0  0
 14 41  1  0  0  0  0
 15 17  1  0  0  0  0
 16 18  1  0  0  0  0
 16 19  1  0  0  0  0
 17 18  2  0  0  0  0
 17 42  1  0  0  0  0
 18 43  1  0  0  0  0
 20 21  1  0  0  0  0
 20 22  2  0  0  0  0
 21 23  2  0  0  0  0
 22 24  1  0  0  0  0
 22 46  1  0  0  0  0
 23 25  1  0  0  0  0
 23 47  1  0  0  0  0
 24 25  2  0  0  0  0
 24 48  1  0  0  0  0
 25 49  1  0  0  0  0
M  END
> <PUBCHEM_COMPOUND_CID>
101231693

> <PUBCHEM_CONFORMER_RMSD>
0.6

> <PUBCHEM_CONFORMER_DIVERSEORDER>
1
2
3

> <PUBCHEM_MMFF94_PARTIAL_CHARGES>
31
1 -0.08
10 -0.08
11 -0.29
12 -0.07
13 0.07
14 -0.15
15 0.1
16 0.05
17 -0.15
18 -0.15
19 0.33
2 0.54
20 0.04
21 0.23
22 -0.15
23 -0.15
24 -0.15
25 -0.15
3 -0.9
4 -0.57
41 0.15
42 0.15
43 0.15
44 0.4
45 0.4
46 0.15
47 0.15
48 0.15
49 0.15
5 -0.08
9 -0.08

> <PUBCHEM_EFFECTIVE_ROTOR_COUNT>
2

> <PUBCHEM_PHARMACOPHORE_FEATURES>
7
1 3 cation
1 3 donor
1 4 acceptor
4 5 6 7 8 hydrophobe
5 1 4 19 20 21 rings
6 13 14 15 16 17 18 rings
6 20 21 22 23 24 25 rings

> <PUBCHEM_HEAVY_ATOM_COUNT>
25

> <PUBCHEM_ATOM_DEF_STEREO_COUNT>
0

> <PUBCHEM_ATOM_UDEF_STEREO_COUNT>
0

> <PUBCHEM_BOND_DEF_STEREO_COUNT>
0

> <PUBCHEM_BOND_UDEF_STEREO_COUNT>
0

> <PUBCHEM_ISOTOPIC_ATOM_COUNT>
0

> <PUBCHEM_COMPONENT_COUNT>
1

> <PUBCHEM_CACTVS_TAUTO_COUNT>
7

> <PUBCHEM_CONFORMER_ID>
0608AC4D00000001

> <PUBCHEM_MMFF94_ENERGY>
65.138

> <PUBCHEM_FEATURE_SELFOVERLAP>
35.592

> <PUBCHEM_SHAPE_FINGERPRINT>
10 15 12679459793944326262
10050765 1 18411981355910096048
10622 236 17825374194815640842
11135926 11 18118972635483555132
11410812 94 16298653994419953582
11524674 6 16988839445928435151
11621639 183 14332588682007181795
12107183 9 18342749494687516497
12144603 126 18340221737991325984
12166972 35 18040436607143685270
12422481 6 17346884429081434935
12592606 108 18410575098624335763
12596602 18 17346881177981264586
12760667 363 18408887317519695633
13540713 4 18267846376714565568
13540713 5 18339380615917944577
13690498 29 18114179696804696757
13782708 43 17917145010195105262
13911852 28 18410855460133436569
14068700 675 18201720656402608209
14117953 113 18271526399688344239
14347332 77 18336263453439700068
14767858 380 18187661232047742692
14950920 106 17203326719218073105
15183329 4 16153699925441374939
15188451 53 16916778626581083663
15320294 125 17561082562217922247
15519825 34 15338538544959894599
15728490 51 18272085033415897350
17492 89 18192995912163299210
17857418 61 18342176669643996939
18222031 100 18411411838834549960
19246450 95 18127712456751119361
20028762 73 18272932722015636454
20775438 99 17762879353625046355
21033650 10 15791726391569181509
21267235 1 18336557019181787664
21401589 2 10807932678454158693
21585483 132 18127391557690337007
21774942 28 12901538036654309942
22950370 63 18411421730244511101
23522609 53 18124349126852621984
23559900 14 18115310102095367953
23622692 118 18410011014187806892
25025965 108 18267287747788609170
3004659 81 17894634755609662736
312425 54 17846498136229255275
314194 84 18337960081211222792
3882209 13 17101961475529234794
397830 11 16415183620496184218
46194498 28 17241883392596537133
463206 1 18335987553151536075
465052 167 18343026609543966510
5104073 3 17560527325787990985
543368 44 10809338950026995099
559249 180 18273496780629054855
6058803 2 17770227364938946953
6431902 208 18334861601604742138
6700243 42 17842870762161557948
7970288 3 18411695504197680311
96874 4 18272644684270738727
999808 66 18041010574516883139

> <PUBCHEM_SHAPE_MULTIPOLES>
526.59
18.62
3.94
1.26
4.92
2.01
-0.04
-18.12
-1.15
0.26
-0.19
-2.31
-0.73
-1.64

> <PUBCHEM_SHAPE_SELFOVERLAP>
1093.672

> <PUBCHEM_SHAPE_VOLUME>
303.2

> <PUBCHEM_COORDINATE_TYPE>
2
5
10

$$$$
