11082531
  -OEChem-02172602443D

 70 72  0     0  0  0  0  0  0999 V2000
   -3.7555   -1.4337    0.4269 O   0  0  0  0  0  0  0  0  0  0  0  0
   -4.1595   -1.1587   -1.8226 O   0  0  0  0  0  0  0  0  0  0  0  0
    5.4476    0.3154    2.7504 O   0  5  0  0  0  0  0  0  0  0  0  0
    6.5354    0.3691    0.8443 O   0  0  0  0  0  0  0  0  0  0  0  0
    0.7055   -3.7150    0.6156 N   0  3  0  0  0  0  0  0  0  0  0  0
    0.9320    1.8774   -1.3380 N   0  0  0  0  0  0  0  0  0  0  0  0
    5.4790    0.4936    1.5091 N   0  3  0  0  0  0  0  0  0  0  0  0
   -2.7061    2.9663    0.8766 C   0  0  0  0  0  0  0  0  0  0  0  0
   -2.2440    3.8182   -0.3076 C   0  0  0  0  0  0  0  0  0  0  0  0
   -4.1739    3.2361    1.2158 C   0  0  0  0  0  0  0  0  0  0  0  0
   -0.7654    3.5751   -0.6226 C   0  0  0  0  0  0  0  0  0  0  0  0
   -4.6443    2.3597    2.3785 C   0  0  0  0  0  0  0  0  0  0  0  0
   -0.4602    2.1176   -0.9776 C   0  0  0  0  0  0  0  0  0  0  0  0
   -4.4668    0.8601    2.1208 C   0  0  0  0  0  0  0  0  0  0  0  0
   -5.3024    0.3434    0.9451 C   0  0  0  0  0  0  0  0  0  0  0  0
    1.9374    1.5346   -0.4622 C   0  0  0  0  0  0  0  0  0  0  0  0
    0.0341   -2.8439   -0.3232 C   0  0  0  0  0  0  0  0  0  0  0  0
    3.1075    1.3992   -1.2125 C   0  0  0  0  0  0  0  0  0  0  0  0
    1.4248    1.9631   -2.6125 C   0  0  0  0  0  0  0  0  0  0  0  0
    1.8871   -2.9944    1.3252 C   0  0  0  0  0  0  0  0  0  0  0  0
    1.2732   -4.9843   -0.0814 C   0  0  0  0  0  0  0  0  0  0  0  0
   -0.1909   -4.2573    1.7732 C   0  0  0  0  0  0  0  0  0  0  0  0
   -5.1161   -1.1534    0.7224 C   0  0  0  0  0  0  0  0  0  0  0  0
    2.7689    1.6725   -2.5674 C   0  0  0  0  0  0  0  0  0  0  0  0
   -1.3202   -2.5531   -0.1589 C   0  0  0  0  0  0  0  0  0  0  0  0
    1.9011    1.3359    0.9224 C   0  0  0  0  0  0  0  0  0  0  0  0
    0.7405   -2.2945   -1.3931 C   0  0  0  0  0  0  0  0  0  0  0  0
   -1.9680   -1.7131   -1.0645 C   0  0  0  0  0  0  0  0  0  0  0  0
    4.3007    1.0486   -0.5504 C   0  0  0  0  0  0  0  0  0  0  0  0
    4.2795    0.8472    0.8345 C   0  0  0  0  0  0  0  0  0  0  0  0
    3.0970    0.9891    1.5576 C   0  0  0  0  0  0  0  0  0  0  0  0
    0.0928   -1.4543   -2.2988 C   0  0  0  0  0  0  0  0  0  0  0  0
   -1.2615   -1.1637   -2.1344 C   0  0  0  0  0  0  0  0  0  0  0  0
   -3.4095   -1.4031   -0.8904 C   0  0  0  0  0  0  0  0  0  0  0  0
   -2.0760    3.1620    1.7520 H   0  0  0  0  0  0  0  0  0  0  0  0
   -2.5906    1.9149    0.6074 H   0  0  0  0  0  0  0  0  0  0  0  0
   -2.8511    3.5901   -1.1919 H   0  0  0  0  0  0  0  0  0  0  0  0
   -2.3895    4.8808   -0.0801 H   0  0  0  0  0  0  0  0  0  0  0  0
   -4.8050    3.0775    0.3345 H   0  0  0  0  0  0  0  0  0  0  0  0
   -4.2952    4.2890    1.4985 H   0  0  0  0  0  0  0  0  0  0  0  0
   -0.4724    4.2242   -1.4572 H   0  0  0  0  0  0  0  0  0  0  0  0
   -0.1525    3.8817    0.2342 H   0  0  0  0  0  0  0  0  0  0  0  0
   -4.0861    2.6296    3.2834 H   0  0  0  0  0  0  0  0  0  0  0  0
   -5.6995    2.5752    2.5844 H   0  0  0  0  0  0  0  0  0  0  0  0
   -1.0691    1.8112   -1.8361 H   0  0  0  0  0  0  0  0  0  0  0  0
   -0.6915    1.4321   -0.1578 H   0  0  0  0  0  0  0  0  0  0  0  0
   -4.7913    0.3309    3.0268 H   0  0  0  0  0  0  0  0  0  0  0  0
   -3.4101    0.6020    2.0019 H   0  0  0  0  0  0  0  0  0  0  0  0
   -6.3628    0.5523    1.1269 H   0  0  0  0  0  0  0  0  0  0  0  0
   -5.0139    0.8699    0.0295 H   0  0  0  0  0  0  0  0  0  0  0  0
    0.7848    2.2228   -3.4450 H   0  0  0  0  0  0  0  0  0  0  0  0
    2.3291   -3.6854    2.0494 H   0  0  0  0  0  0  0  0  0  0  0  0
    2.6352   -2.7164    0.5778 H   0  0  0  0  0  0  0  0  0  0  0  0
    1.4880   -2.1089    1.8296 H   0  0  0  0  0  0  0  0  0  0  0  0
    1.7298   -5.6225    0.6813 H   0  0  0  0  0  0  0  0  0  0  0  0
    0.4420   -5.5005   -0.5713 H   0  0  0  0  0  0  0  0  0  0  0  0
    2.0305   -4.6802   -0.8092 H   0  0  0  0  0  0  0  0  0  0  0  0
    0.4275   -4.8943    2.4146 H   0  0  0  0  0  0  0  0  0  0  0  0
   -0.5613   -3.4082    2.3559 H   0  0  0  0  0  0  0  0  0  0  0  0
   -0.9981   -4.8562    1.3401 H   0  0  0  0  0  0  0  0  0  0  0  0
   -5.3753   -1.7050    1.6328 H   0  0  0  0  0  0  0  0  0  0  0  0
   -5.7856   -1.5178   -0.0657 H   0  0  0  0  0  0  0  0  0  0  0  0
    3.4357    1.6580   -3.4186 H   0  0  0  0  0  0  0  0  0  0  0  0
   -1.9043   -2.9748    0.6508 H   0  0  0  0  0  0  0  0  0  0  0  0
    0.9863    1.4461    1.4949 H   0  0  0  0  0  0  0  0  0  0  0  0
    1.7952   -2.5014   -1.5498 H   0  0  0  0  0  0  0  0  0  0  0  0
    5.2097    0.9436   -1.1361 H   0  0  0  0  0  0  0  0  0  0  0  0
    3.0631    0.8356    2.6341 H   0  0  0  0  0  0  0  0  0  0  0  0
    0.6412   -1.0326   -3.1357 H   0  0  0  0  0  0  0  0  0  0  0  0
   -1.7517   -0.5079   -2.8490 H   0  0  0  0  0  0  0  0  0  0  0  0
  1 23  1  0  0  0  0
  1 34  1  0  0  0  0
  2 34  2  0  0  0  0
  3  7  1  0  0  0  0
  4  7  2  0  0  0  0
  5 17  1  0  0  0  0
  5 20  1  0  0  0  0
  5 21  1  0  0  0  0
  5 22  1  0  0  0  0
  6 13  1  0  0  0  0
  6 16  1  0  0  0  0
  6 19  1  0  0  0  0
  7 30  1  0  0  0  0
  8  9  1  0  0  0  0
  8 10  1  0  0  0  0
  8 35  1  0  0  0  0
  8 36  1  0  0  0  0
  9 11  1  0  0  0  0
  9 37  1  0  0  0  0
  9 38  1  0  0  0  0
 10 12  1  0  0  0  0
 10 39  1  0  0  0  0
 10 40  1  0  0  0  0
 11 13  1  0  0  0  0
 11 41  1  0  0  0  0
 11 42  1  0  0  0  0
 12 14  1  0  0  0  0
 12 43  1  0  0  0  0
 12 44  1  0  0  0  0
 13 45  1  0  0  0  0
 13 46  1  0  0  0  0
 14 15  1  0  0  0  0
 14 47  1  0  0  0  0
 14 48  1  0  0  0  0
 15 23  1  0  0  0  0
 15 49  1  0  0  0  0
 15 50  1  0  0  0  0
 16 18  2  0  0  0  0
 16 26  1  0  0  0  0
 17 25  1  0  0  0  0
 17 27  2  0  0  0  0
 18 24  1  0  0  0  0
 18 29  1  0  0  0  0
 19 24  2  0  0  0  0
 19 51  1  0  0  0  0
 20 52  1  0  0  0  0
 20 53  1  0  0  0  0
 20 54  1  0  0  0  0
 21 55  1  0  0  0  0
 21 56  1  0  0  0  0
 21 57  1  0  0  0  0
 22 58  1  0  0  0  0
 22 59  1  0  0  0  0
 22 60  1  0  0  0  0
 23 61  1  0  0  0  0
 23 62  1  0  0  0  0
 24 63  1  0  0  0  0
 25 28  2  0  0  0  0
 25 64  1  0  0  0  0
 26 31  2  0  0  0  0
 26 65  1  0  0  0  0
 27 32  1  0  0  0  0
 27 66  1  0  0  0  0
 28 33  1  0  0  0  0
 28 34  1  0  0  0  0
 29 30  2  0  0  0  0
 29 67  1  0  0  0  0
 30 31  1  0  0  0  0
 31 68  1  0  0  0  0
 32 33  2  0  0  0  0
 32 69  1  0  0  0  0
 33 70  1  0  0  0  0
M  CHG  3   3  -1   5   1   7   1
M  END
> <PUBCHEM_COMPOUND_CID>
11082531

> <PUBCHEM_CONFORMER_RMSD>
1.8

> <PUBCHEM_CONFORMER_DIVERSEORDER>
7
4
14
49
72
91
66
8
33
32
94
45
54
5
19
57
42
85
36
11
62
82
63
58
51
61
10
81
97
12
48
71
44
68
69
1
20
28
83
74
79
93
41
53
86
50
87
16
60
70
17
64
76
98
2
89
40
55
9
78
15
47
6
18
75
21
92
27
43
31
23
80
46
26
22
30
90
73
39
52
24
77
59
99
56
84
34
96
67
25
37
35
95
65
3
88
13
38
29

> <PUBCHEM_MMFF94_PARTIAL_CHARGES>
35
1 -0.43
13 0.26
16 -0.15
17 0.36
19 -0.3
2 -0.57
20 0.5
21 0.5
22 0.5
23 0.28
24 -0.15
25 -0.15
26 -0.15
27 -0.15
28 0.09
29 -0.15
3 -0.52
30 0.13
31 -0.15
32 -0.15
33 -0.15
34 0.63
4 -0.52
5 -0.87
51 0.15
6 0.05
63 0.15
64 0.15
65 0.15
66 0.15
67 0.15
68 0.15
69 0.15
7 0.91
70 0.15

> <PUBCHEM_EFFECTIVE_ROTOR_COUNT>
14

> <PUBCHEM_PHARMACOPHORE_FEATURES>
9
1 2 acceptor
1 3 acceptor
1 3 anion
1 4 acceptor
1 5 cation
1 6 cation
5 6 16 18 19 24 rings
6 16 18 26 29 30 31 rings
6 17 25 27 28 32 33 rings

> <PUBCHEM_HEAVY_ATOM_COUNT>
34

> <PUBCHEM_ATOM_DEF_STEREO_COUNT>
0

> <PUBCHEM_ATOM_UDEF_STEREO_COUNT>
0

> <PUBCHEM_BOND_DEF_STEREO_COUNT>
0

> <PUBCHEM_BOND_UDEF_STEREO_COUNT>
0

> <PUBCHEM_ISOTOPIC_ATOM_COUNT>
0

> <PUBCHEM_COMPONENT_COUNT>
1

> <PUBCHEM_CACTVS_TAUTO_COUNT>
1

> <PUBCHEM_CONFORMER_ID>
00A91B2300000007

> <PUBCHEM_MMFF94_ENERGY>
85.1541

> <PUBCHEM_FEATURE_SELFOVERLAP>
45.844

> <PUBCHEM_SHAPE_FINGERPRINT>
12422481 6 18264763260378558762
12633257 1 17969778764486189470
12788726 201 18198069276965848004
13642711 20 16486967375861190515
14251757 17 16414659101994256905
14705955 166 17845926429270489016
16120349 306 18341622494905036265
20764821 26 17899735398751672219
21033648 29 17058949933274223319
238918 7 18131079216235031661
24893992 56 18267016349701226783
3052486 1 18340783614361205357
469060 322 18409736192490152889
581034 39 18411420596230519312

> <PUBCHEM_SHAPE_MULTIPOLES>
661.28
10.63
5.9
2.61
0.91
4.37
0.19
-5.75
-7.64
-1.66
-0.62
1.02
-0.45
-2.16

> <PUBCHEM_SHAPE_SELFOVERLAP>
1379.118

> <PUBCHEM_SHAPE_VOLUME>
377.1

> <PUBCHEM_COORDINATE_TYPE>
2
5
10

$$$$
