12303530
  -OEChem-02172602463D

 15 15  0     0  0  0  0  0  0999 V2000
    0.8148   -1.5847    0.0060 S   0  0  0  0  0  0  0  0  0  0  0  0
   -1.4386    2.7353    0.0015 S   0  0  0  0  0  0  0  0  0  0  0  0
   -1.6932   -2.2631   -0.0035 O   0  0  0  0  0  0  0  0  0  0  0  0
    1.5200    0.0013   -0.0001 C   0  0  0  0  0  0  0  0  0  0  0  0
    0.7829    1.1230   -0.0025 C   0  0  0  0  0  0  0  0  0  0  0  0
   -0.6634    1.1702    0.0001 C   0  0  0  0  0  0  0  0  0  0  0  0
    3.0227    0.0626   -0.0020 C   0  0  0  0  0  0  0  0  0  0  0  0
   -1.4313    0.0714    0.0006 C   0  0  0  0  0  0  0  0  0  0  0  0
   -0.9139   -1.3160   -0.0002 C   0  0  0  0  0  0  0  0  0  0  0  0
    1.2976    2.0823   -0.0061 H   0  0  0  0  0  0  0  0  0  0  0  0
    3.4305   -0.4287    0.8883 H   0  0  0  0  0  0  0  0  0  0  0  0
    3.3941    1.0932   -0.0055 H   0  0  0  0  0  0  0  0  0  0  0  0
    3.4284   -0.4340   -0.8902 H   0  0  0  0  0  0  0  0  0  0  0  0
   -2.5170    0.1401    0.0016 H   0  0  0  0  0  0  0  0  0  0  0  0
   -2.7223    2.3466    0.0038 H   0  0  0  0  0  0  0  0  0  0  0  0
  1  4  1  0  0  0  0
  1  9  1  0  0  0  0
  2  6  1  0  0  0  0
  2 15  1  0  0  0  0
  3  9  2  0  0  0  0
  4  5  2  0  0  0  0
  4  7  1  0  0  0  0
  5  6  1  0  0  0  0
  5 10  1  0  0  0  0
  6  8  2  0  0  0  0
  7 11  1  0  0  0  0
  7 12  1  0  0  0  0
  7 13  1  0  0  0  0
  8  9  1  0  0  0  0
  8 14  1  0  0  0  0
M  END
> <PUBCHEM_COMPOUND_CID>
12303530

> <PUBCHEM_CONFORMER_RMSD>
0.4

> <PUBCHEM_CONFORMER_DIVERSEORDER>
1

> <PUBCHEM_MMFF94_PARTIAL_CHARGES>
12
1 -0.24
10 0.15
14 0.15
15 0.18
2 -0.28
3 -0.57
4 -0.04
5 -0.15
6 0.1
7 0.14
8 -0.14
9 0.7

> <PUBCHEM_EFFECTIVE_ROTOR_COUNT>
0

> <PUBCHEM_PHARMACOPHORE_FEATURES>
1
6 1 4 5 6 8 9 rings

> <PUBCHEM_HEAVY_ATOM_COUNT>
9

> <PUBCHEM_ATOM_DEF_STEREO_COUNT>
0

> <PUBCHEM_ATOM_UDEF_STEREO_COUNT>
0

> <PUBCHEM_BOND_DEF_STEREO_COUNT>
0

> <PUBCHEM_BOND_UDEF_STEREO_COUNT>
0

> <PUBCHEM_ISOTOPIC_ATOM_COUNT>
0

> <PUBCHEM_COMPONENT_COUNT>
1

> <PUBCHEM_CACTVS_TAUTO_COUNT>
8

> <PUBCHEM_CONFORMER_ID>
00BBBCAA00000001

> <PUBCHEM_MMFF94_ENERGY>
17.5669

> <PUBCHEM_FEATURE_SELFOVERLAP>
5.074

> <PUBCHEM_SHAPE_FINGERPRINT>
1 1 17617377277500811989
100427 49 17979917438288021453
12423570 1 18265922222674672504
12716758 59 18269559343057646238
16945 1 18410855447375180672
18185500 45 18050569847939079030
193761 8 18194682566350938278
20871998 184 18272654579669023678
21040471 1 18194682566572205028
23552423 10 18188209935103934742
23552449 1 18339358673050257228
2748010 2 18123746718996696037
528862 383 17469039960484421832

> <PUBCHEM_SHAPE_MULTIPOLES>
187.05
3.09
2.62
0.63
1.13
1.38
0
-2.06
0
-0.67
0
0.01
-0.03
0

> <PUBCHEM_SHAPE_SELFOVERLAP>
357.488

> <PUBCHEM_SHAPE_VOLUME>
116.4

> <PUBCHEM_COORDINATE_TYPE>
2
5
10

$$$$
