14104188
  -OEChem-02172602563D

 45 47  0     0  0  0  0  0  0999 V2000
    0.5866    0.6184   -0.2131 O   0  0  0  0  0  0  0  0  0  0  0  0
    6.0968    0.2423   -0.3097 O   0  0  0  0  0  0  0  0  0  0  0  0
   -3.9532    2.5126    0.7536 O   0  0  0  0  0  0  0  0  0  0  0  0
   -4.7769   -1.9794   -0.6890 O   0  0  0  0  0  0  0  0  0  0  0  0
   -5.7339    0.5182    0.0300 O   0  0  0  0  0  0  0  0  0  0  0  0
    4.6352   -2.0038    0.2074 O   0  0  0  0  0  0  0  0  0  0  0  0
    2.2534   -3.0295    0.5031 O   0  0  0  0  0  0  0  0  0  0  0  0
    4.8308    2.6554   -0.7760 O   0  0  0  0  0  0  0  0  0  0  0  0
    2.5859   -0.7429    0.0083 C   0  0  0  0  0  0  0  0  0  0  0  0
   -0.1925   -0.5008    0.0389 C   0  0  0  0  0  0  0  0  0  0  0  0
   -1.6448   -0.2337    0.0364 C   0  0  0  0  0  0  0  0  0  0  0  0
    1.9509    0.4753   -0.2269 C   0  0  0  0  0  0  0  0  0  0  0  0
    1.7632   -1.9304    0.2849 C   0  0  0  0  0  0  0  0  0  0  0  0
    0.3007   -1.7246    0.2862 C   0  0  0  0  0  0  0  0  0  0  0  0
    3.9797   -0.8297   -0.0175 C   0  0  0  0  0  0  0  0  0  0  0  0
   -2.5428   -1.2395   -0.3289 C   0  0  0  0  0  0  0  0  0  0  0  0
   -2.1274    1.0262    0.3994 C   0  0  0  0  0  0  0  0  0  0  0  0
    2.7082    1.6170   -0.4899 C   0  0  0  0  0  0  0  0  0  0  0  0
    4.7347    0.3138   -0.2813 C   0  0  0  0  0  0  0  0  0  0  0  0
   -3.4992    1.2786    0.3973 C   0  0  0  0  0  0  0  0  0  0  0  0
   -3.9146   -0.9873   -0.3312 C   0  0  0  0  0  0  0  0  0  0  0  0
   -4.3930    0.2718    0.0320 C   0  0  0  0  0  0  0  0  0  0  0  0
    4.1006    1.5345   -0.5169 C   0  0  0  0  0  0  0  0  0  0  0  0
    6.7815    0.4688    0.9198 C   0  0  0  0  0  0  0  0  0  0  0  0
   -2.9735    3.4848    1.1131 C   0  0  0  0  0  0  0  0  0  0  0  0
   -5.2571   -2.8275    0.3523 C   0  0  0  0  0  0  0  0  0  0  0  0
   -6.2993    1.0115   -1.1823 C   0  0  0  0  0  0  0  0  0  0  0  0
   -0.3085   -2.5923    0.5107 H   0  0  0  0  0  0  0  0  0  0  0  0
   -2.2022   -2.2245   -0.6389 H   0  0  0  0  0  0  0  0  0  0  0  0
   -1.3990    1.7761    0.6886 H   0  0  0  0  0  0  0  0  0  0  0  0
    2.2162    2.5688   -0.6736 H   0  0  0  0  0  0  0  0  0  0  0  0
    4.0066   -2.7215    0.3775 H   0  0  0  0  0  0  0  0  0  0  0  0
    5.7722    2.4125   -0.8015 H   0  0  0  0  0  0  0  0  0  0  0  0
   -2.3129    3.7236    0.2726 H   0  0  0  0  0  0  0  0  0  0  0  0
   -2.4200    3.1882    2.0106 H   0  0  0  0  0  0  0  0  0  0  0  0
   -3.5114    4.4052    1.3635 H   0  0  0  0  0  0  0  0  0  0  0  0
   -5.9378   -3.5604   -0.0893 H   0  0  0  0  0  0  0  0  0  0  0  0
   -4.4268   -3.3613    0.8254 H   0  0  0  0  0  0  0  0  0  0  0  0
   -5.8058   -2.2468    1.1004 H   0  0  0  0  0  0  0  0  0  0  0  0
    6.5169   -0.2988    1.6537 H   0  0  0  0  0  0  0  0  0  0  0  0
    7.8565    0.4123    0.7283 H   0  0  0  0  0  0  0  0  0  0  0  0
    6.5497    1.4619    1.3176 H   0  0  0  0  0  0  0  0  0  0  0  0
   -7.3712    1.1589   -1.0250 H   0  0  0  0  0  0  0  0  0  0  0  0
   -5.8505    1.9722   -1.4541 H   0  0  0  0  0  0  0  0  0  0  0  0
   -6.1611    0.2899   -1.9935 H   0  0  0  0  0  0  0  0  0  0  0  0
  1 10  1  0  0  0  0
  1 12  1  0  0  0  0
  2 19  1  0  0  0  0
  2 24  1  0  0  0  0
  3 20  1  0  0  0  0
  3 25  1  0  0  0  0
  4 21  1  0  0  0  0
  4 26  1  0  0  0  0
  5 22  1  0  0  0  0
  5 27  1  0  0  0  0
  6 15  1  0  0  0  0
  6 32  1  0  0  0  0
  7 13  2  0  0  0  0
  8 23  1  0  0  0  0
  8 33  1  0  0  0  0
  9 12  2  0  0  0  0
  9 13  1  0  0  0  0
  9 15  1  0  0  0  0
 10 11  1  0  0  0  0
 10 14  2  0  0  0  0
 11 16  2  0  0  0  0
 11 17  1  0  0  0  0
 12 18  1  0  0  0  0
 13 14  1  0  0  0  0
 14 28  1  0  0  0  0
 15 19  2  0  0  0  0
 16 21  1  0  0  0  0
 16 29  1  0  0  0  0
 17 20  2  0  0  0  0
 17 30  1  0  0  0  0
 18 23  2  0  0  0  0
 18 31  1  0  0  0  0
 19 23  1  0  0  0  0
 20 22  1  0  0  0  0
 21 22  2  0  0  0  0
 24 40  1  0  0  0  0
 24 41  1  0  0  0  0
 24 42  1  0  0  0  0
 25 34  1  0  0  0  0
 25 35  1  0  0  0  0
 25 36  1  0  0  0  0
 26 37  1  0  0  0  0
 26 38  1  0  0  0  0
 26 39  1  0  0  0  0
 27 43  1  0  0  0  0
 27 44  1  0  0  0  0
 27 45  1  0  0  0  0
M  END
> <PUBCHEM_COMPOUND_CID>
14104188

> <PUBCHEM_CONFORMER_RMSD>
0.8

> <PUBCHEM_CONFORMER_DIVERSEORDER>
4
1
5
2
6
3

> <PUBCHEM_MMFF94_PARTIAL_CHARGES>
33
1 -0.16
10 0.05
11 0.03
12 0.08
13 0.47
14 -0.14
15 0.08
16 -0.15
17 -0.15
18 -0.15
19 0.08
2 -0.36
20 0.08
21 0.08
22 0.08
23 0.08
24 0.28
25 0.28
26 0.28
27 0.28
28 0.15
29 0.15
3 -0.36
30 0.15
31 0.15
32 0.45
33 0.45
4 -0.36
5 -0.36
6 -0.53
7 -0.57
8 -0.53
9 0.09

> <PUBCHEM_EFFECTIVE_ROTOR_COUNT>
5

> <PUBCHEM_PHARMACOPHORE_FEATURES>
11
1 1 acceptor
1 2 acceptor
1 3 acceptor
1 4 acceptor
1 5 acceptor
1 6 donor
1 7 acceptor
1 8 donor
6 1 9 10 12 13 14 rings
6 11 16 17 20 21 22 rings
6 9 12 15 18 19 23 rings

> <PUBCHEM_HEAVY_ATOM_COUNT>
27

> <PUBCHEM_ATOM_DEF_STEREO_COUNT>
0

> <PUBCHEM_ATOM_UDEF_STEREO_COUNT>
0

> <PUBCHEM_BOND_DEF_STEREO_COUNT>
0

> <PUBCHEM_BOND_UDEF_STEREO_COUNT>
0

> <PUBCHEM_ISOTOPIC_ATOM_COUNT>
0

> <PUBCHEM_COMPONENT_COUNT>
1

> <PUBCHEM_CACTVS_TAUTO_COUNT>
12

> <PUBCHEM_CONFORMER_ID>
00D7367C00000004

> <PUBCHEM_MMFF94_ENERGY>
123.1483

> <PUBCHEM_FEATURE_SELFOVERLAP>
55.862

> <PUBCHEM_SHAPE_FINGERPRINT>
10595046 47 18411139164245672676
12107183 9 17762620585970852027
12166972 35 17895475959119508013
12236239 1 18344145904060366918
12403260 363 18336547204960171548
12788726 201 17916582030467083009
13073987 5 18411981347635828170
13167823 11 18412263930260387991
13631057 29 18342174522851588371
14251764 18 18114460163186447540
14341114 176 18409454652703486159
14528608 73 18408606989236027566
14790565 3 18410017645859872508
15183329 4 18411705374517316572
15196674 1 18408886260725885479
17349148 13 18040436624365712875
17492 89 18412548674019057855
17844677 252 18340215102282372566
18681886 176 18341890835992665490
19377110 9 18410579491584667283
20511986 3 18338503145613905857
21033648 29 16370713842529598108
21130935 74 18411415095422515618
21267235 1 18338806705196713358
21709351 56 18335135414369872372
23402539 116 18411697720690169575
23559900 14 18341322371153887393
23569917 315 18334860550198409890
245318 6 17389120128559822564
335352 9 18408045109657858454
34797466 226 16988844990768240652
350125 39 18411417310628159537
3545911 37 18408603656620850581
3633792 109 18189607264602471045
4073 2 17894917376952673779
4214541 1 18411420583641210909
474 4 18187369835015998240
5104073 3 18409731729290886122
59755656 215 18334575711638618918
59755656 520 17022619801856297931
6371009 1 18408879655430577272
67856867 119 18337669823280001892

> <PUBCHEM_SHAPE_MULTIPOLES>
508.69
15.65
3.12
0.85
3.07
0.39
0.01
2.13
-1
-1.93
0.66
-0.26
0.3
-1.18

> <PUBCHEM_SHAPE_SELFOVERLAP>
1113.08

> <PUBCHEM_SHAPE_VOLUME>
276.8

> <PUBCHEM_COORDINATE_TYPE>
2
5
10

$$$$
