12313627
  -OEChem-02172602443D

 43 46  0     1  0  0  0  0  0999 V2000
    4.2115   -1.9700   -0.0925 O   0  0  0  0  0  0  0  0  0  0  0  0
    2.1907    1.9820   -1.8012 O   0  0  0  0  0  0  0  0  0  0  0  0
   -1.3356   -0.6004   -0.4410 N   0  0  1  0  0  0  0  0  0  0  0  0
    1.1564    0.9245   -0.0057 N   0  0  0  0  0  0  0  0  0  0  0  0
   -1.1550    1.6026    0.7496 C   0  0  1  0  0  0  0  0  0  0  0  0
   -0.1124   -0.4071    1.7302 C   0  0  1  0  0  0  0  0  0  0  0  0
   -1.9713    0.7158   -0.2334 C   0  0  2  0  0  0  0  0  0  0  0  0
    1.2683   -0.0226    1.1245 C   0  0  1  0  0  0  0  0  0  0  0  0
   -0.8832    0.8718    2.0652 C   0  0  0  0  0  0  0  0  0  0  0  0
   -0.9985   -1.2818    0.8140 C   0  0  0  0  0  0  0  0  0  0  0  0
    0.1943    2.0237    0.1415 C   0  0  0  0  0  0  0  0  0  0  0  0
   -3.4478    0.5973    0.2014 C   0  0  0  0  0  0  0  0  0  0  0  0
    2.1083   -1.2554    0.7908 C   0  0  0  0  0  0  0  0  0  0  0  0
   -2.1032   -1.4466   -1.3598 C   0  0  0  0  0  0  0  0  0  0  0  0
   -4.2464   -0.2655   -0.7716 C   0  0  0  0  0  0  0  0  0  0  0  0
   -3.5720   -1.6171   -0.9713 C   0  0  0  0  0  0  0  0  0  0  0  0
    3.4233   -0.8162    0.1744 C   0  0  2  0  0  0  0  0  0  0  0  0
    2.1393    1.0503   -0.9931 C   0  0  0  0  0  0  0  0  0  0  0  0
    3.1332   -0.0854   -1.1220 C   0  0  0  0  0  0  0  0  0  0  0  0
   -1.7273    2.5153    0.9588 H   0  0  0  0  0  0  0  0  0  0  0  0
    0.0637   -0.9633    2.6602 H   0  0  0  0  0  0  0  0  0  0  0  0
   -1.9690    1.2331   -1.2035 H   0  0  0  0  0  0  0  0  0  0  0  0
    1.8147    0.5397    1.8961 H   0  0  0  0  0  0  0  0  0  0  0  0
   -0.3011    1.5056    2.7457 H   0  0  0  0  0  0  0  0  0  0  0  0
   -1.8169    0.6341    2.5865 H   0  0  0  0  0  0  0  0  0  0  0  0
   -0.4820   -2.2236    0.5999 H   0  0  0  0  0  0  0  0  0  0  0  0
   -1.9052   -1.5590    1.3666 H   0  0  0  0  0  0  0  0  0  0  0  0
    0.0335    2.5095   -0.8279 H   0  0  0  0  0  0  0  0  0  0  0  0
    0.6746    2.7690    0.7884 H   0  0  0  0  0  0  0  0  0  0  0  0
   -3.9006    1.5949    0.2488 H   0  0  0  0  0  0  0  0  0  0  0  0
   -3.5322    0.1670    1.2055 H   0  0  0  0  0  0  0  0  0  0  0  0
    2.2890   -1.8516    1.6936 H   0  0  0  0  0  0  0  0  0  0  0  0
    1.5957   -1.9201    0.0856 H   0  0  0  0  0  0  0  0  0  0  0  0
   -1.6290   -2.4307   -1.4586 H   0  0  0  0  0  0  0  0  0  0  0  0
   -2.0525   -0.9984   -2.3608 H   0  0  0  0  0  0  0  0  0  0  0  0
   -4.3268    0.2503   -1.7364 H   0  0  0  0  0  0  0  0  0  0  0  0
   -5.2664   -0.4067   -0.3976 H   0  0  0  0  0  0  0  0  0  0  0  0
   -3.6538   -2.2099   -0.0526 H   0  0  0  0  0  0  0  0  0  0  0  0
   -4.0966   -2.1761   -1.7547 H   0  0  0  0  0  0  0  0  0  0  0  0
    3.9813   -0.1701    0.8621 H   0  0  0  0  0  0  0  0  0  0  0  0
    2.7464   -0.7816   -1.8771 H   0  0  0  0  0  0  0  0  0  0  0  0
    4.0710    0.3145   -1.5264 H   0  0  0  0  0  0  0  0  0  0  0  0
    4.3803   -2.4131    0.7566 H   0  0  0  0  0  0  0  0  0  0  0  0
  1 17  1  0  0  0  0
  1 43  1  0  0  0  0
  2 18  2  0  0  0  0
  3  7  1  0  0  0  0
  3 10  1  0  0  0  0
  3 14  1  0  0  0  0
  4  8  1  0  0  0  0
  4 11  1  0  0  0  0
  4 18  1  0  0  0  0
  5  7  1  0  0  0  0
  5  9  1  0  0  0  0
  5 11  1  0  0  0  0
  5 20  1  0  0  0  0
  6  8  1  0  0  0  0
  6  9  1  0  0  0  0
  6 10  1  0  0  0  0
  6 21  1  0  0  0  0
  7 12  1  0  0  0  0
  7 22  1  0  0  0  0
  8 13  1  0  0  0  0
  8 23  1  0  0  0  0
  9 24  1  0  0  0  0
  9 25  1  0  0  0  0
 10 26  1  0  0  0  0
 10 27  1  0  0  0  0
 11 28  1  0  0  0  0
 11 29  1  0  0  0  0
 12 15  1  0  0  0  0
 12 30  1  0  0  0  0
 12 31  1  0  0  0  0
 13 17  1  0  0  0  0
 13 32  1  0  0  0  0
 13 33  1  0  0  0  0
 14 16  1  0  0  0  0
 14 34  1  0  0  0  0
 14 35  1  0  0  0  0
 15 16  1  0  0  0  0
 15 36  1  0  0  0  0
 15 37  1  0  0  0  0
 16 38  1  0  0  0  0
 16 39  1  0  0  0  0
 17 19  1  0  0  0  0
 17 40  1  0  0  0  0
 18 19  1  0  0  0  0
 19 41  1  0  0  0  0
 19 42  1  0  0  0  0
M  END
> <PUBCHEM_COMPOUND_CID>
12313627

> <PUBCHEM_CONFORMER_RMSD>
0.6

> <PUBCHEM_CONFORMER_DIVERSEORDER>
1
2

> <PUBCHEM_MMFF94_PARTIAL_CHARGES>
13
1 -0.68
10 0.27
11 0.3
14 0.27
17 0.28
18 0.57
19 0.06
2 -0.57
3 -0.81
4 -0.66
43 0.4
7 0.27
8 0.3

> <PUBCHEM_EFFECTIVE_ROTOR_COUNT>
2

> <PUBCHEM_PHARMACOPHORE_FEATURES>
8
1 1 acceptor
1 1 donor
1 2 acceptor
1 3 cation
6 3 5 6 7 9 10 rings
6 3 7 12 14 15 16 rings
6 4 5 6 8 9 11 rings
6 4 8 13 17 18 19 rings

> <PUBCHEM_HEAVY_ATOM_COUNT>
19

> <PUBCHEM_ATOM_DEF_STEREO_COUNT>
5

> <PUBCHEM_ATOM_UDEF_STEREO_COUNT>
0

> <PUBCHEM_BOND_DEF_STEREO_COUNT>
0

> <PUBCHEM_BOND_UDEF_STEREO_COUNT>
0

> <PUBCHEM_ISOTOPIC_ATOM_COUNT>
0

> <PUBCHEM_COMPONENT_COUNT>
1

> <PUBCHEM_CACTVS_TAUTO_COUNT>
1

> <PUBCHEM_CONFORMER_ID>
00BBE41B00000001

> <PUBCHEM_MMFF94_ENERGY>
35.6149

> <PUBCHEM_FEATURE_SELFOVERLAP>
42.299

> <PUBCHEM_SHAPE_FINGERPRINT>
10062212 137 18412824655853136647
10618630 7 17775279478121625223
10863032 1 18042414684422976207
10948715 1 11386365911325104674
11471102 22 13830131676538965288
11578080 2 18195500680575750448
12202030 40 16199331814341942492
12251169 10 10880001258691238901
12363563 72 16989124279221482415
12633257 1 14907888397318342230
12892183 10 11887677307755822551
13764800 53 12901550134896122159
14115302 16 18272649043424510879
14250199 8 18040156240115627204
15375358 24 15482666853701714311
15775835 57 9007053578251450926
16752209 62 18200866276255124721
16945 1 17313371314856622001
17349148 13 18186514424071291296
17834072 14 16486971791092916555
18186145 218 17240196647090697865
18981168 100 14418131872016285770
192875 21 18113897144022906616
19422 9 18408886261121212551
19862831 5 18113333102694163479
200 152 18334860493777161482
20600515 1 17346877857881737265
21069387 34 18409173177774326302
21421861 104 14832154217022706663
21486144 27 16805892891097926501
21524375 3 12757416242137471955
21731516 1 17845106210258506539
22112679 90 18272102568844590897
22802520 49 18118964930438118475
23227448 37 13046816558780604486
232386 152 17845925312156426431
23402539 116 18115300052203970682
23419403 2 17185525643413650640
23557571 272 17846777416799242194
23559900 14 17346317051665460082
238 59 17895764039692167854
25 1 16443344221906481496
2748010 2 16533711261500838433
296302 2 15626216948598512715
3082319 5 18408885174125273639
3323516 105 17531532087224159491
568465 68 14979666728028863982
633830 44 17312818286615394461
7364860 26 17700961404310068249
81228 2 15840453426390408339
9981440 41 17613438161526450040

> <PUBCHEM_SHAPE_MULTIPOLES>
369.31
6.43
1.98
1.63
0.26
0.07
-0.17
-3.1
2.21
-0.11
0.25
-0.4
0.3
-1.19

> <PUBCHEM_SHAPE_SELFOVERLAP>
786.044

> <PUBCHEM_SHAPE_VOLUME>
198.4

> <PUBCHEM_COORDINATE_TYPE>
2
5
10

$$$$
