101662998
  -OEChem-02172602433D

 45 47  0     1  0  0  0  0  0999 V2000
    3.8743   -0.3739   -0.7927 O   0  0  0  0  0  0  0  0  0  0  0  0
    5.8940    1.2338    0.8530 O   0  0  0  0  0  0  0  0  0  0  0  0
    4.3235   -3.1059   -0.3609 O   0  0  0  0  0  0  0  0  0  0  0  0
    1.3325    2.7870   -0.6289 O   0  0  0  0  0  0  0  0  0  0  0  0
    1.7468    0.5240   -0.4152 N   0  0  0  0  0  0  0  0  0  0  0  0
   -4.3549    0.2721    0.0147 N   0  0  0  0  0  0  0  0  0  0  0  0
   -0.4571    1.3939   -0.7744 N   0  0  0  0  0  0  0  0  0  0  0  0
   -2.2092   -0.1071   -0.9076 N   0  0  0  0  0  0  0  0  0  0  0  0
    4.9385    0.2461    1.2332 C   0  0  1  0  0  0  0  0  0  0  0  0
    3.5526    0.8486    1.2249 C   0  0  0  0  0  0  0  0  0  0  0  0
    4.8524   -0.8313    0.1611 C   0  0  1  0  0  0  0  0  0  0  0  0
    3.1537    0.7354   -0.2374 C   0  0  1  0  0  0  0  0  0  0  0  0
    4.3827   -2.1738    0.7062 C   0  0  0  0  0  0  0  0  0  0  0  0
   -6.8976   -0.8361    0.7625 C   0  0  0  0  0  0  0  0  0  0  0  0
   -6.0753    0.0080    1.7346 C   0  0  0  0  0  0  0  0  0  0  0  0
   -5.9922   -1.5259   -0.2562 C   0  0  0  0  0  0  0  0  0  0  0  0
   -5.1725    0.9897    0.9908 C   0  0  0  0  0  0  0  0  0  0  0  0
   -5.0908   -0.5201   -0.9686 C   0  0  0  0  0  0  0  0  0  0  0  0
    1.2466   -0.7618   -0.3949 C   0  0  0  0  0  0  0  0  0  0  0  0
    0.8981    1.6341   -0.6076 C   0  0  0  0  0  0  0  0  0  0  0  0
   -3.0100    0.4095   -0.0350 C   0  0  0  0  0  0  0  0  0  0  0  0
   -0.0516   -1.0215   -0.5534 C   0  0  0  0  0  0  0  0  0  0  0  0
   -0.8847    0.1753   -0.7482 C   0  0  0  0  0  0  0  0  0  0  0  0
    5.2296   -0.1331    2.2174 H   0  0  0  0  0  0  0  0  0  0  0  0
    2.8869    0.2549    1.8630 H   0  0  0  0  0  0  0  0  0  0  0  0
    3.5173    1.8860    1.5721 H   0  0  0  0  0  0  0  0  0  0  0  0
    5.7942   -0.9567   -0.3845 H   0  0  0  0  0  0  0  0  0  0  0  0
    3.4745    1.6294   -0.7853 H   0  0  0  0  0  0  0  0  0  0  0  0
    3.4003   -2.1193    1.1811 H   0  0  0  0  0  0  0  0  0  0  0  0
    5.0980   -2.5496    1.4454 H   0  0  0  0  0  0  0  0  0  0  0  0
   -7.6180   -0.1957    0.2390 H   0  0  0  0  0  0  0  0  0  0  0  0
   -7.4742   -1.5855    1.3159 H   0  0  0  0  0  0  0  0  0  0  0  0
   -6.7432    0.5547    2.4094 H   0  0  0  0  0  0  0  0  0  0  0  0
   -5.4600   -0.6553    2.3554 H   0  0  0  0  0  0  0  0  0  0  0  0
   -5.3725   -2.2706    0.2591 H   0  0  0  0  0  0  0  0  0  0  0  0
   -6.6016   -2.0646   -0.9902 H   0  0  0  0  0  0  0  0  0  0  0  0
   -5.7778    1.7421    0.4711 H   0  0  0  0  0  0  0  0  0  0  0  0
   -4.5520    1.5260    1.7180 H   0  0  0  0  0  0  0  0  0  0  0  0
   -4.4203   -1.0643   -1.6431 H   0  0  0  0  0  0  0  0  0  0  0  0
   -5.6930    0.1508   -1.5931 H   0  0  0  0  0  0  0  0  0  0  0  0
    6.7637    0.7996    0.8223 H   0  0  0  0  0  0  0  0  0  0  0  0
    1.9257   -1.5872   -0.2551 H   0  0  0  0  0  0  0  0  0  0  0  0
   -2.6162    1.0379    0.7846 H   0  0  0  0  0  0  0  0  0  0  0  0
   -0.4715   -2.0174   -0.5457 H   0  0  0  0  0  0  0  0  0  0  0  0
    4.0349   -3.9546    0.0159 H   0  0  0  0  0  0  0  0  0  0  0  0
  1 11  1  0  0  0  0
  1 12  1  0  0  0  0
  2  9  1  0  0  0  0
  2 41  1  0  0  0  0
  3 13  1  0  0  0  0
  3 45  1  0  0  0  0
  4 20  2  0  0  0  0
  5 12  1  0  0  0  0
  5 19  1  0  0  0  0
  5 20  1  0  0  0  0
  6 17  1  0  0  0  0
  6 18  1  0  0  0  0
  6 21  1  0  0  0  0
  7 20  1  0  0  0  0
  7 23  2  0  0  0  0
  8 21  2  0  0  0  0
  8 23  1  0  0  0  0
  9 10  1  0  0  0  0
  9 11  1  0  0  0  0
  9 24  1  0  0  0  0
 10 12  1  0  0  0  0
 10 25  1  0  0  0  0
 10 26  1  0  0  0  0
 11 13  1  0  0  0  0
 11 27  1  0  0  0  0
 12 28  1  0  0  0  0
 13 29  1  0  0  0  0
 13 30  1  0  0  0  0
 14 15  1  0  0  0  0
 14 16  1  0  0  0  0
 14 31  1  0  0  0  0
 14 32  1  0  0  0  0
 15 17  1  0  0  0  0
 15 33  1  0  0  0  0
 15 34  1  0  0  0  0
 16 18  1  0  0  0  0
 16 35  1  0  0  0  0
 16 36  1  0  0  0  0
 17 37  1  0  0  0  0
 17 38  1  0  0  0  0
 18 39  1  0  0  0  0
 18 40  1  0  0  0  0
 19 22  2  0  0  0  0
 19 42  1  0  0  0  0
 21 43  1  0  0  0  0
 22 23  1  0  0  0  0
 22 44  1  0  0  0  0
M  END
> <PUBCHEM_COMPOUND_CID>
101662998

> <PUBCHEM_CONFORMER_RMSD>
0.8

> <PUBCHEM_CONFORMER_DIVERSEORDER>
1
25
32
20
30
28
29
19
27
7
11
35
9
16
2
33
18
23
36
31
15
8
22
12
5
37
14
13
21
24
3
17
4
6
34
10
26
38

> <PUBCHEM_MMFF94_PARTIAL_CHARGES>
24
1 -0.56
11 0.28
12 0.58
13 0.28
17 0.37
18 0.37
19 -0.04
2 -0.68
20 0.84
21 0.44
22 -0.14
23 0.65
3 -0.68
4 -0.57
41 0.4
42 0.15
43 0.06
44 0.15
45 0.4
5 -0.47
6 -0.79
7 -0.66
8 -0.66
9 0.28

> <PUBCHEM_EFFECTIVE_ROTOR_COUNT>
6.2

> <PUBCHEM_PHARMACOPHORE_FEATURES>
11
1 1 acceptor
1 2 acceptor
1 2 donor
1 3 acceptor
1 3 donor
1 4 acceptor
1 7 donor
3 6 8 21 cation
5 1 9 10 11 12 rings
6 5 7 19 20 22 23 rings
6 6 14 15 16 17 18 rings

> <PUBCHEM_HEAVY_ATOM_COUNT>
23

> <PUBCHEM_ATOM_DEF_STEREO_COUNT>
3

> <PUBCHEM_ATOM_UDEF_STEREO_COUNT>
0

> <PUBCHEM_BOND_DEF_STEREO_COUNT>
0

> <PUBCHEM_BOND_UDEF_STEREO_COUNT>
0

> <PUBCHEM_ISOTOPIC_ATOM_COUNT>
0

> <PUBCHEM_COMPONENT_COUNT>
1

> <PUBCHEM_CACTVS_TAUTO_COUNT>
1

> <PUBCHEM_CONFORMER_ID>
060F411600000001

> <PUBCHEM_MMFF94_ENERGY>
51.3456

> <PUBCHEM_FEATURE_SELFOVERLAP>
55.826

> <PUBCHEM_SHAPE_FINGERPRINT>
10 15 17418380212133997675
106641 1 18337105782462819112
10693767 8 11098395046215782576
11796584 16 16588020208552691545
12166972 35 18271811241471470177
12236239 1 17918555730272307831
12422481 6 17773874212135703767
12516196 113 18259702306786991737
12596602 18 18060420213888516963
12623949 98 18200881652254337174
12670543 26 8430323445567534689
13533116 47 18202000997814076354
13685833 64 17822010934600516465
13782708 43 17167582696233039507
13862211 1 18186515501496223979
13911852 28 18262513667804108075
13914758 101 18334570223646490429
14251764 18 18342738554508708932
14341114 176 18413392025085091641
14528608 73 9079113354158930933
14849402 71 17986109827736688209
15461852 350 16630803327646359141
15475509 35 16733248123876605080
16079462 125 13398632728091627563
17492 89 18044930174350333642
17844677 252 16008749113134548725
1813 80 17530966856500744732
18222031 100 17095525093193538471
18785283 64 18041846249775849524
20028762 73 18339360872443648639
20281389 69 13542468640251087971
20715895 44 10159684795036307990
21130935 74 18342741806284904955
21150785 3 12901553459596649555
21267235 1 18409729518289991806
21623969 137 17967248702193856090
21637258 2 15719382953934395368
21682296 61 18337111142513770247
220451 1 18201721768762136415
23402655 69 9223235126847218429
23522609 53 17972634089062932605
23559900 14 14635158988198568069
25122255 55 17386017204072789355
25147074 1 18123466343605609773
2767999 5 12823295689255928299
2916195 48 15482670195719001251
29717793 49 12107782995432573738
312425 54 18342745109230345779
34797466 226 15647348454167623119
3663271 9 18060139847298283059
4340502 62 15769777948443786134
465052 167 17821731645319008730
5104073 3 18269833125305013528
633830 44 9079107852316712184
7495541 125 16877944970529858269
960060 61 11891335339659301274

> <PUBCHEM_SHAPE_MULTIPOLES>
429.93
17.11
2.06
1.21
16.14
0.53
0.34
5.14
6.79
-2.57
-0.22
0.57
-0.13
-0.14

> <PUBCHEM_SHAPE_SELFOVERLAP>
901.993

> <PUBCHEM_SHAPE_VOLUME>
240.8

> <PUBCHEM_COORDINATE_TYPE>
2
5
10

$$$$
