392470
  -OEChem-02172602273D

 55 58  0     1  0  0  0  0  0999 V2000
    3.6395   -1.1870   -1.4657 O   0  0  0  0  0  0  0  0  0  0  0  0
    5.4337    0.8020   -0.9568 O   0  0  0  0  0  0  0  0  0  0  0  0
   -4.9337   -1.0706    0.3115 O   0  0  0  0  0  0  0  0  0  0  0  0
    1.1959    0.8577    0.0464 C   0  0  1  0  0  0  0  0  0  0  0  0
    0.4716   -0.4903   -0.2614 C   0  0  2  0  0  0  0  0  0  0  0  0
   -1.0511   -0.5827    0.1457 C   0  0  1  0  0  0  0  0  0  0  0  0
   -1.7890    0.6872   -0.4155 C   0  0  2  0  0  0  0  0  0  0  0  0
    2.6990   -1.1628    0.7577 C   0  0  1  0  0  0  0  0  0  0  0  0
    1.3543   -1.6780    0.1992 C   0  0  0  0  0  0  0  0  0  0  0  0
    2.5393    0.8544   -0.7558 C   0  0  0  0  0  0  0  0  0  0  0  0
    0.3534    2.0595   -0.4071 C   0  0  0  0  0  0  0  0  0  0  0  0
    1.6018    0.9626    1.5372 C   0  0  0  0  0  0  0  0  0  0  0  0
    3.4290   -0.3372   -0.3312 C   0  0  2  0  0  0  0  0  0  0  0  0
   -1.1042    1.9941    0.0379 C   0  0  0  0  0  0  0  0  0  0  0  0
    2.3788   -0.2839    1.9775 C   0  0  0  0  0  0  0  0  0  0  0  0
   -3.3453    0.6965   -0.1952 C   0  0  0  0  0  0  0  0  0  0  0  0
   -1.6473   -1.8684   -0.5182 C   0  0  0  0  0  0  0  0  0  0  0  0
   -1.2585   -0.7228    1.6743 C   0  0  0  0  0  0  0  0  0  0  0  0
   -3.0785   -1.7398   -1.0258 C   0  0  0  0  0  0  0  0  0  0  0  0
    4.8138    0.1349    0.1246 C   0  0  0  0  0  0  0  0  0  0  0  0
   -3.8749   -0.7427   -0.2247 C   0  0  0  0  0  0  0  0  0  0  0  0
   -3.7995    1.3786    1.1098 C   0  0  0  0  0  0  0  0  0  0  0  0
   -4.0283    1.4386   -1.3645 C   0  0  0  0  0  0  0  0  0  0  0  0
    0.4630   -0.5526   -1.3628 H   0  0  0  0  0  0  0  0  0  0  0  0
   -1.6386    0.6431   -1.5066 H   0  0  0  0  0  0  0  0  0  0  0  0
    3.3045   -2.0260    1.0589 H   0  0  0  0  0  0  0  0  0  0  0  0
    1.5306   -2.3484   -0.6516 H   0  0  0  0  0  0  0  0  0  0  0  0
    0.8644   -2.3010    0.9519 H   0  0  0  0  0  0  0  0  0  0  0  0
    2.3342    0.8105   -1.8337 H   0  0  0  0  0  0  0  0  0  0  0  0
    3.0522    1.8096   -0.5822 H   0  0  0  0  0  0  0  0  0  0  0  0
    0.3672    2.1220   -1.5037 H   0  0  0  0  0  0  0  0  0  0  0  0
    0.8002    2.9941   -0.0457 H   0  0  0  0  0  0  0  0  0  0  0  0
    0.7485    1.1234    2.1982 H   0  0  0  0  0  0  0  0  0  0  0  0
    2.2392    1.8455    1.6825 H   0  0  0  0  0  0  0  0  0  0  0  0
   -1.1580    2.1172    1.1240 H   0  0  0  0  0  0  0  0  0  0  0  0
   -1.6254    2.8555   -0.3959 H   0  0  0  0  0  0  0  0  0  0  0  0
    3.2920    0.0091    2.5068 H   0  0  0  0  0  0  0  0  0  0  0  0
    1.7834   -0.8532    2.7017 H   0  0  0  0  0  0  0  0  0  0  0  0
   -1.5938   -2.7076    0.1885 H   0  0  0  0  0  0  0  0  0  0  0  0
   -1.0372   -2.1844   -1.3741 H   0  0  0  0  0  0  0  0  0  0  0  0
   -2.2735   -1.0580    1.9122 H   0  0  0  0  0  0  0  0  0  0  0  0
   -0.5972   -1.4665    2.1244 H   0  0  0  0  0  0  0  0  0  0  0  0
   -1.1063    0.2125    2.2125 H   0  0  0  0  0  0  0  0  0  0  0  0
   -3.5763   -2.7152   -0.9940 H   0  0  0  0  0  0  0  0  0  0  0  0
   -3.0880   -1.4134   -2.0720 H   0  0  0  0  0  0  0  0  0  0  0  0
    5.4517   -0.7088    0.4088 H   0  0  0  0  0  0  0  0  0  0  0  0
    4.7627    0.8310    0.9660 H   0  0  0  0  0  0  0  0  0  0  0  0
   -4.8903    1.3378    1.2185 H   0  0  0  0  0  0  0  0  0  0  0  0
   -3.3825    0.9009    1.9988 H   0  0  0  0  0  0  0  0  0  0  0  0
   -3.5241    2.4381    1.1331 H   0  0  0  0  0  0  0  0  0  0  0  0
   -3.7244    2.4896   -1.4068 H   0  0  0  0  0  0  0  0  0  0  0  0
   -3.7855    0.9791   -2.3294 H   0  0  0  0  0  0  0  0  0  0  0  0
   -5.1202    1.4109   -1.2668 H   0  0  0  0  0  0  0  0  0  0  0  0
    4.1699   -1.9488   -1.1752 H   0  0  0  0  0  0  0  0  0  0  0  0
    5.4867    0.1758   -1.6989 H   0  0  0  0  0  0  0  0  0  0  0  0
  1 13  1  0  0  0  0
  1 54  1  0  0  0  0
  2 20  1  0  0  0  0
  2 55  1  0  0  0  0
  3 21  2  0  0  0  0
  4  5  1  0  0  0  0
  4 10  1  0  0  0  0
  4 11  1  0  0  0  0
  4 12  1  0  0  0  0
  5  6  1  0  0  0  0
  5  9  1  0  0  0  0
  5 24  1  0  0  0  0
  6  7  1  0  0  0  0
  6 17  1  0  0  0  0
  6 18  1  0  0  0  0
  7 14  1  0  0  0  0
  7 16  1  0  0  0  0
  7 25  1  0  0  0  0
  8  9  1  0  0  0  0
  8 13  1  0  0  0  0
  8 15  1  0  0  0  0
  8 26  1  0  0  0  0
  9 27  1  0  0  0  0
  9 28  1  0  0  0  0
 10 13  1  0  0  0  0
 10 29  1  0  0  0  0
 10 30  1  0  0  0  0
 11 14  1  0  0  0  0
 11 31  1  0  0  0  0
 11 32  1  0  0  0  0
 12 15  1  0  0  0  0
 12 33  1  0  0  0  0
 12 34  1  0  0  0  0
 13 20  1  0  0  0  0
 14 35  1  0  0  0  0
 14 36  1  0  0  0  0
 15 37  1  0  0  0  0
 15 38  1  0  0  0  0
 16 21  1  0  0  0  0
 16 22  1  0  0  0  0
 16 23  1  0  0  0  0
 17 19  1  0  0  0  0
 17 39  1  0  0  0  0
 17 40  1  0  0  0  0
 18 41  1  0  0  0  0
 18 42  1  0  0  0  0
 18 43  1  0  0  0  0
 19 21  1  0  0  0  0
 19 44  1  0  0  0  0
 19 45  1  0  0  0  0
 20 46  1  0  0  0  0
 20 47  1  0  0  0  0
 22 48  1  0  0  0  0
 22 49  1  0  0  0  0
 22 50  1  0  0  0  0
 23 51  1  0  0  0  0
 23 52  1  0  0  0  0
 23 53  1  0  0  0  0
M  END
> <PUBCHEM_COMPOUND_CID>
392470

> <PUBCHEM_CONFORMER_RMSD>
0.6

> <PUBCHEM_CONFORMER_DIVERSEORDER>
1

> <PUBCHEM_MMFF94_PARTIAL_CHARGES>
10
1 -0.68
13 0.28
16 0.06
19 0.06
2 -0.68
20 0.28
21 0.45
3 -0.57
54 0.4
55 0.4

> <PUBCHEM_EFFECTIVE_ROTOR_COUNT>
3

> <PUBCHEM_PHARMACOPHORE_FEATURES>
9
1 1 acceptor
1 1 donor
1 2 acceptor
1 2 donor
1 3 acceptor
3 16 22 23 hydrophobe
6 4 5 6 7 11 14 rings
6 6 7 16 17 19 21 rings
8 4 5 8 9 10 12 13 15 rings

> <PUBCHEM_HEAVY_ATOM_COUNT>
23

> <PUBCHEM_ATOM_DEF_STEREO_COUNT>
5

> <PUBCHEM_ATOM_UDEF_STEREO_COUNT>
1

> <PUBCHEM_BOND_DEF_STEREO_COUNT>
0

> <PUBCHEM_BOND_UDEF_STEREO_COUNT>
0

> <PUBCHEM_ISOTOPIC_ATOM_COUNT>
0

> <PUBCHEM_COMPONENT_COUNT>
1

> <PUBCHEM_CACTVS_TAUTO_COUNT>
2

> <PUBCHEM_CONFORMER_ID>
0005FD1600000001

> <PUBCHEM_MMFF94_ENERGY>
105.0654

> <PUBCHEM_FEATURE_SELFOVERLAP>
45.715

> <PUBCHEM_SHAPE_FINGERPRINT>
10062212 137 18334283254641652035
10366900 7 17489577944433096717
10498660 4 18336260163262636420
10759866 29 17968934185005312650
10863032 1 18201432567038844786
10948715 1 17240488009187664608
11132069 177 18338224990573068441
11552529 35 16271070687515633255
11578080 2 17630593729864026465
12011746 2 18343015571467706645
12236239 1 17821443543914538160
12403259 415 18201430398550034337
12403814 3 17458340810645772045
12553582 1 18337379526455925797
12788726 201 18263078821265884008
128620 24 17894349968901871806
13134695 92 15123789604570895106
13140716 1 18411134783537546441
13221675 6 18333732403146801912
13224815 77 18334572438794359329
13583140 156 15195267742979888647
14289901 80 13840260386233396927
14787075 74 17967257520051585889
14790565 3 18409738365031461292
15196674 1 18336264556966557934
15209289 33 18131072627776233195
15415430 112 18410009944334404604
15788980 27 17894628124158948058
1601671 61 18341894078329048284
16752209 62 18192699060607569925
16945 1 18268697347020901401
17349148 13 17603862274452061002
17804303 29 18202281411759453609
18186145 218 17632849841687635283
19862831 5 17749108876671711284
200 152 18334856134084565103
20028762 73 18058166310153637407
20691752 17 17822277028835343896
21033648 29 17346306099071711507
21267235 1 18410301340902126063
23175994 123 16343709854015276450
23402539 116 17967526857413891988
23402655 69 18261951855990295877
23419403 2 16757119736595868721
23557571 272 18273215317624597002
23559900 14 17917704730111463696
2748010 2 18268418199984913401
296302 2 17240201010603455752
34797466 226 17417822806830822876
34934 24 18187923945758088244
350125 39 18411703205859473233
4340502 62 15936701380162417921
474 4 16951136204501588020
5104073 3 18409445856235775538
633830 44 17096361744375477555
7364860 26 18126281076272338048

> <PUBCHEM_SHAPE_MULTIPOLES>
455.72
8.94
1.98
1.39
1.78
0.11
0.42
0.06
-1.8
-1.05
-0.27
0.34
-0.01
-0.2

> <PUBCHEM_SHAPE_SELFOVERLAP>
976.701

> <PUBCHEM_SHAPE_VOLUME>
249.3

> <PUBCHEM_COORDINATE_TYPE>
2
5
10

$$$$
