5321018
  -OEChem-02172602553D

 35 37  0     1  0  0  0  0  0999 V2000
    2.4961   -1.4794    0.1196 O   0  0  0  0  0  0  0  0  0  0  0  0
    4.5408   -0.4543    0.3465 O   0  0  0  0  0  0  0  0  0  0  0  0
   -1.2435   -0.9323   -0.2949 C   0  0  2  0  0  0  0  0  0  0  0  0
   -1.1517    0.5321    0.2740 C   0  0  1  0  0  0  0  0  0  0  0  0
   -2.3336   -1.6932    0.5040 C   0  0  0  0  0  0  0  0  0  0  0  0
    0.0647    1.2958   -0.3053 C   0  0  0  0  0  0  0  0  0  0  0  0
   -2.5052    1.2181    0.1889 C   0  0  0  0  0  0  0  0  0  0  0  0
   -3.6931   -0.9822    0.4873 C   0  0  0  0  0  0  0  0  0  0  0  0
    0.1017   -1.6303   -0.1309 C   0  0  0  0  0  0  0  0  0  0  0  0
   -3.5986    0.4802    0.9275 C   0  0  0  0  0  0  0  0  0  0  0  0
   -1.5815   -0.9622   -1.8036 C   0  0  0  0  0  0  0  0  0  0  0  0
    1.3111    0.4903   -0.1123 C   0  0  0  0  0  0  0  0  0  0  0  0
    1.2409   -0.9304   -0.0459 C   0  0  0  0  0  0  0  0  0  0  0  0
    2.5744    0.8673    0.0473 C   0  0  0  0  0  0  0  0  0  0  0  0
   -2.7566    2.3643   -0.4615 C   0  0  0  0  0  0  0  0  0  0  0  0
    3.3313   -0.3898    0.1897 C   0  0  0  0  0  0  0  0  0  0  0  0
    3.2028    2.2058    0.0695 C   0  0  0  0  0  0  0  0  0  0  0  0
   -0.9478    0.4493    1.3560 H   0  0  0  0  0  0  0  0  0  0  0  0
   -2.0129   -1.8069    1.5488 H   0  0  0  0  0  0  0  0  0  0  0  0
   -2.4591   -2.7100    0.1100 H   0  0  0  0  0  0  0  0  0  0  0  0
    0.1623    2.2681    0.1923 H   0  0  0  0  0  0  0  0  0  0  0  0
   -0.0737    1.4878   -1.3760 H   0  0  0  0  0  0  0  0  0  0  0  0
   -4.3864   -1.5147    1.1491 H   0  0  0  0  0  0  0  0  0  0  0  0
   -4.1271   -1.0359   -0.5183 H   0  0  0  0  0  0  0  0  0  0  0  0
    0.1298   -2.7160   -0.1031 H   0  0  0  0  0  0  0  0  0  0  0  0
   -3.3830    0.5217    2.0028 H   0  0  0  0  0  0  0  0  0  0  0  0
   -4.5742    0.9602    0.7861 H   0  0  0  0  0  0  0  0  0  0  0  0
   -2.5067   -0.4270   -2.0371 H   0  0  0  0  0  0  0  0  0  0  0  0
   -0.7877   -0.5101   -2.4091 H   0  0  0  0  0  0  0  0  0  0  0  0
   -1.7053   -1.9936   -2.1562 H   0  0  0  0  0  0  0  0  0  0  0  0
   -1.9862    2.9058   -0.9974 H   0  0  0  0  0  0  0  0  0  0  0  0
   -3.7534    2.7930   -0.4754 H   0  0  0  0  0  0  0  0  0  0  0  0
    2.4723    3.0017   -0.1042 H   0  0  0  0  0  0  0  0  0  0  0  0
    3.9692    2.2815   -0.7084 H   0  0  0  0  0  0  0  0  0  0  0  0
    3.6765    2.3892    1.0389 H   0  0  0  0  0  0  0  0  0  0  0  0
  1 13  1  0  0  0  0
  1 16  1  0  0  0  0
  2 16  2  0  0  0  0
  3  4  1  0  0  0  0
  3  5  1  0  0  0  0
  3  9  1  0  0  0  0
  3 11  1  0  0  0  0
  4  6  1  0  0  0  0
  4  7  1  0  0  0  0
  4 18  1  0  0  0  0
  5  8  1  0  0  0  0
  5 19  1  0  0  0  0
  5 20  1  0  0  0  0
  6 12  1  0  0  0  0
  6 21  1  0  0  0  0
  6 22  1  0  0  0  0
  7 10  1  0  0  0  0
  7 15  2  0  0  0  0
  8 10  1  0  0  0  0
  8 23  1  0  0  0  0
  8 24  1  0  0  0  0
  9 13  2  0  0  0  0
  9 25  1  0  0  0  0
 10 26  1  0  0  0  0
 10 27  1  0  0  0  0
 11 28  1  0  0  0  0
 11 29  1  0  0  0  0
 11 30  1  0  0  0  0
 12 13  1  0  0  0  0
 12 14  2  0  0  0  0
 14 16  1  0  0  0  0
 14 17  1  0  0  0  0
 15 31  1  0  0  0  0
 15 32  1  0  0  0  0
 17 33  1  0  0  0  0
 17 34  1  0  0  0  0
 17 35  1  0  0  0  0
M  END
> <PUBCHEM_COMPOUND_CID>
5321018

> <PUBCHEM_CONFORMER_RMSD>
0.6

> <PUBCHEM_CONFORMER_DIVERSEORDER>
1

> <PUBCHEM_MMFF94_PARTIAL_CHARGES>
17
1 -0.23
10 0.14
12 -0.14
13 0.08
14 -0.12
15 -0.3
16 0.71
17 0.14
2 -0.57
25 0.15
3 0.14
31 0.15
32 0.15
4 0.14
6 0.14
7 -0.28
9 -0.29

> <PUBCHEM_EFFECTIVE_ROTOR_COUNT>
1

> <PUBCHEM_PHARMACOPHORE_FEATURES>
4
1 2 acceptor
5 1 12 13 14 16 rings
6 3 4 5 7 8 10 rings
6 3 4 6 9 12 13 rings

> <PUBCHEM_HEAVY_ATOM_COUNT>
17

> <PUBCHEM_ATOM_DEF_STEREO_COUNT>
2

> <PUBCHEM_ATOM_UDEF_STEREO_COUNT>
0

> <PUBCHEM_BOND_DEF_STEREO_COUNT>
0

> <PUBCHEM_BOND_UDEF_STEREO_COUNT>
0

> <PUBCHEM_ISOTOPIC_ATOM_COUNT>
0

> <PUBCHEM_COMPONENT_COUNT>
1

> <PUBCHEM_CACTVS_TAUTO_COUNT>
1

> <PUBCHEM_CONFORMER_ID>
0051313A00000001

> <PUBCHEM_MMFF94_ENERGY>
31.8963

> <PUBCHEM_FEATURE_SELFOVERLAP>
20.418

> <PUBCHEM_SHAPE_FINGERPRINT>
10608611 8 18410011022334584297
10922523 26 18201442445674726294
10967382 1 18410577283691628752
11132069 177 18413108350932170675
11680986 33 18054232029129483038
12077114 3 18262514784695707837
12251169 10 18409168792190464122
12403814 3 18412544340644073161
12932764 1 17703506717893489096
13140716 1 18411134723487216488
13214271 11 18409727335454731199
13221675 6 18411420596362562958
13581323 91 18411140229350076236
13675066 3 18273493468718665866
14144814 61 18409731776435013048
14223421 5 18409454699615713123
15196674 1 18410577322557461025
15219456 202 18270687441650433215
15309172 13 17632303367292064855
15375462 478 18411704305017575879
15442244 35 18337671893511949194
15536298 74 18342180007339877680
15775835 57 18202008779851295641
16945 1 18195817253939781377
17802600 8 18412541024480973201
17804303 29 18410301276514215062
17844478 74 18040718069230134213
18186145 218 18202008689836440896
200 152 18202272620372745135
20510252 161 18341898510640528049
21267235 1 18410303518213265762
21501502 16 18341329002271902404
21524375 3 18272933817004826039
22854114 111 18411984688919761944
2334 1 18339640143742706044
23402539 116 18341891927173237135
23463225 33 18408606959018190928
23559900 14 18270116782869057906
2748010 2 18411703157839230309
335352 9 18049442547867435140
350125 39 18410016550078865472
5104073 3 18410296946881317497
69090 78 18272929410558031095
7097593 13 17897995850823568594
84936 31 16342305635938292342
9709674 26 18411424998598923095

> <PUBCHEM_SHAPE_MULTIPOLES>
338.11
6.79
2.19
0.93
3.11
0.74
-0.31
0.74
1.46
-0.4
-0.14
-0.59
-0.16
0.02

> <PUBCHEM_SHAPE_SELFOVERLAP>
733.4

> <PUBCHEM_SHAPE_VOLUME>
186.1

> <PUBCHEM_COORDINATE_TYPE>
2
5
10

$$$$
