10115054
  -OEChem-02172602533D

 59 63  0     0  0  0  0  0  0999 V2000
   -1.4511    0.5596    0.0770 S   0  0  0  0  0  0  0  0  0  0  0  0
   -4.9833    4.5987    0.0711 O   0  0  0  0  0  0  0  0  0  0  0  0
   -3.9603   -3.7204    0.0679 O   0  0  0  0  0  0  0  0  0  0  0  0
    1.0429   -3.3431    0.1720 O   0  0  0  0  0  0  0  0  0  0  0  0
    5.4198    1.7676    0.1876 N   0  0  0  0  0  0  0  0  0  0  0  0
   -4.4266    1.8447   -0.0011 N   0  0  0  0  0  0  0  0  0  0  0  0
    5.6277   -1.4275    0.1614 N   0  0  0  0  0  0  0  0  0  0  0  0
   -1.5682   -2.0167    0.1015 N   0  0  0  0  0  0  0  0  0  0  0  0
    0.6267   -1.0295    0.1386 N   0  0  0  0  0  0  0  0  0  0  0  0
    5.9776    3.0142    0.7112 C   0  0  0  0  0  0  0  0  0  0  0  0
    6.3096    1.3843   -0.9081 C   0  0  0  0  0  0  0  0  0  0  0  0
    6.3521    3.7773   -0.5508 C   0  0  0  0  0  0  0  0  0  0  0  0
    6.5668    2.7063   -1.6159 C   0  0  0  0  0  0  0  0  0  0  0  0
    5.3163    0.7339    1.2068 C   0  0  0  0  0  0  0  0  0  0  0  0
    4.7410   -0.5431    0.6543 C   0  0  0  0  0  0  0  0  0  0  0  0
   -5.1157    2.4910   -1.1234 C   0  0  0  0  0  0  0  0  0  0  0  0
   -4.5294    2.5483    1.2848 C   0  0  0  0  0  0  0  0  0  0  0  0
   -4.2758    0.4544    0.0173 C   0  0  0  0  0  0  0  0  0  0  0  0
   -4.7323    3.9655   -1.1831 C   0  0  0  0  0  0  0  0  0  0  0  0
   -4.1766    4.0193    1.0965 C   0  0  0  0  0  0  0  0  0  0  0  0
   -3.0156   -0.1641    0.0507 C   0  0  0  0  0  0  0  0  0  0  0  0
    3.3743   -0.7251    0.6848 C   0  0  0  0  0  0  0  0  0  0  0  0
   -2.8762   -1.5552    0.0686 C   0  0  0  0  0  0  0  0  0  0  0  0
   -5.4122   -0.3584    0.0016 C   0  0  0  0  0  0  0  0  0  0  0  0
    2.8751   -1.9146    0.1660 C   0  0  0  0  0  0  0  0  0  0  0  0
   -4.0408   -2.3532    0.0519 C   0  0  0  0  0  0  0  0  0  0  0  0
   -5.2985   -1.7441    0.0186 C   0  0  0  0  0  0  0  0  0  0  0  0
   -0.7710   -0.9961    0.1081 C   0  0  0  0  0  0  0  0  0  0  0  0
    3.7505   -2.8609   -0.3552 C   0  0  0  0  0  0  0  0  0  0  0  0
    5.1055   -2.5718   -0.3343 C   0  0  0  0  0  0  0  0  0  0  0  0
    1.4432   -2.1679    0.1683 C   0  0  0  0  0  0  0  0  0  0  0  0
   -3.8955   -4.3732   -1.1947 C   0  0  0  0  0  0  0  0  0  0  0  0
    6.8763    2.8359    1.3157 H   0  0  0  0  0  0  0  0  0  0  0  0
    5.2538    3.5681    1.3173 H   0  0  0  0  0  0  0  0  0  0  0  0
    5.8555    0.6675   -1.5996 H   0  0  0  0  0  0  0  0  0  0  0  0
    7.2596    0.9734   -0.5422 H   0  0  0  0  0  0  0  0  0  0  0  0
    5.5399    4.4470   -0.8568 H   0  0  0  0  0  0  0  0  0  0  0  0
    7.2500    4.3853   -0.4005 H   0  0  0  0  0  0  0  0  0  0  0  0
    5.8559    2.8538   -2.4375 H   0  0  0  0  0  0  0  0  0  0  0  0
    7.5774    2.7479   -2.0347 H   0  0  0  0  0  0  0  0  0  0  0  0
    6.2964    0.5142    1.6528 H   0  0  0  0  0  0  0  0  0  0  0  0
    4.6836    1.0851    2.0324 H   0  0  0  0  0  0  0  0  0  0  0  0
   -4.8521    2.0094   -2.0722 H   0  0  0  0  0  0  0  0  0  0  0  0
   -6.1992    2.3987   -0.9801 H   0  0  0  0  0  0  0  0  0  0  0  0
   -5.5579    2.4562    1.6550 H   0  0  0  0  0  0  0  0  0  0  0  0
   -3.8586    2.1083    2.0318 H   0  0  0  0  0  0  0  0  0  0  0  0
   -3.6761    4.0926   -1.4504 H   0  0  0  0  0  0  0  0  0  0  0  0
   -5.3305    4.4763   -1.9443 H   0  0  0  0  0  0  0  0  0  0  0  0
   -4.3639    4.5699    2.0239 H   0  0  0  0  0  0  0  0  0  0  0  0
   -3.1173    4.1467    0.8425 H   0  0  0  0  0  0  0  0  0  0  0  0
    2.7432    0.0332    1.1341 H   0  0  0  0  0  0  0  0  0  0  0  0
   -6.4065    0.0826   -0.0182 H   0  0  0  0  0  0  0  0  0  0  0  0
   -6.1984   -2.3542    0.0078 H   0  0  0  0  0  0  0  0  0  0  0  0
    3.4044   -3.7997   -0.7744 H   0  0  0  0  0  0  0  0  0  0  0  0
    5.8299   -3.2759   -0.7303 H   0  0  0  0  0  0  0  0  0  0  0  0
    1.0446   -0.1053    0.0933 H   0  0  0  0  0  0  0  0  0  0  0  0
   -4.7977   -4.1695   -1.7802 H   0  0  0  0  0  0  0  0  0  0  0  0
   -3.0078   -4.0525   -1.7493 H   0  0  0  0  0  0  0  0  0  0  0  0
   -3.8278   -5.4508   -1.0216 H   0  0  0  0  0  0  0  0  0  0  0  0
  1 21  1  0  0  0  0
  1 28  1  0  0  0  0
  2 19  1  0  0  0  0
  2 20  1  0  0  0  0
  3 26  1  0  0  0  0
  3 32  1  0  0  0  0
  4 31  2  0  0  0  0
  5 10  1  0  0  0  0
  5 11  1  0  0  0  0
  5 14  1  0  0  0  0
  6 16  1  0  0  0  0
  6 17  1  0  0  0  0
  6 18  1  0  0  0  0
  7 15  2  0  0  0  0
  7 30  1  0  0  0  0
  8 23  1  0  0  0  0
  8 28  2  0  0  0  0
  9 28  1  0  0  0  0
  9 31  1  0  0  0  0
  9 56  1  0  0  0  0
 10 12  1  0  0  0  0
 10 33  1  0  0  0  0
 10 34  1  0  0  0  0
 11 13  1  0  0  0  0
 11 35  1  0  0  0  0
 11 36  1  0  0  0  0
 12 13  1  0  0  0  0
 12 37  1  0  0  0  0
 12 38  1  0  0  0  0
 13 39  1  0  0  0  0
 13 40  1  0  0  0  0
 14 15  1  0  0  0  0
 14 41  1  0  0  0  0
 14 42  1  0  0  0  0
 15 22  1  0  0  0  0
 16 19  1  0  0  0  0
 16 43  1  0  0  0  0
 16 44  1  0  0  0  0
 17 20  1  0  0  0  0
 17 45  1  0  0  0  0
 17 46  1  0  0  0  0
 18 21  2  0  0  0  0
 18 24  1  0  0  0  0
 19 47  1  0  0  0  0
 19 48  1  0  0  0  0
 20 49  1  0  0  0  0
 20 50  1  0  0  0  0
 21 23  1  0  0  0  0
 22 25  2  0  0  0  0
 22 51  1  0  0  0  0
 23 26  2  0  0  0  0
 24 27  2  0  0  0  0
 24 52  1  0  0  0  0
 25 29  1  0  0  0  0
 25 31  1  0  0  0  0
 26 27  1  0  0  0  0
 27 53  1  0  0  0  0
 29 30  2  0  0  0  0
 29 54  1  0  0  0  0
 30 55  1  0  0  0  0
 32 57  1  0  0  0  0
 32 58  1  0  0  0  0
 32 59  1  0  0  0  0
M  END
> <PUBCHEM_COMPOUND_CID>
10115054

> <PUBCHEM_CONFORMER_RMSD>
1

> <PUBCHEM_CONFORMER_DIVERSEORDER>
1
42
46
29
14
52
61
12
59
50
15
55
9
17
10
45
43
47
36
39
41
38
7
54
48
37
23
60
49
35
31
51
44
33
11
20
22
53
8
21
62
27
58
40
16
6
56
34
13
18
32
25
26
28
57
24
19
30
3
5
4
2

> <PUBCHEM_MMFF94_PARTIAL_CHARGES>
36
1 -0.08
10 0.27
11 0.27
14 0.41
15 0.17
16 0.37
17 0.37
18 0.1
19 0.28
2 -0.56
20 0.28
21 0.04
22 -0.15
23 0.23
24 -0.15
25 0.09
26 0.08
27 -0.15
28 0.44
29 -0.15
3 -0.36
30 0.16
31 0.54
32 0.28
4 -0.57
5 -0.81
51 0.15
52 0.15
53 0.15
54 0.15
55 0.15
56 0.37
6 -0.84
7 -0.62
8 -0.57
9 -0.49

> <PUBCHEM_EFFECTIVE_ROTOR_COUNT>
9.2

> <PUBCHEM_PHARMACOPHORE_FEATURES>
12
1 2 acceptor
1 3 acceptor
1 4 acceptor
1 5 cation
1 6 cation
1 7 acceptor
1 9 donor
5 1 8 21 23 28 rings
5 5 10 11 12 13 rings
6 18 21 23 24 26 27 rings
6 2 6 16 17 19 20 rings
6 7 15 22 25 29 30 rings

> <PUBCHEM_HEAVY_ATOM_COUNT>
32

> <PUBCHEM_ATOM_DEF_STEREO_COUNT>
0

> <PUBCHEM_ATOM_UDEF_STEREO_COUNT>
0

> <PUBCHEM_BOND_DEF_STEREO_COUNT>
0

> <PUBCHEM_BOND_UDEF_STEREO_COUNT>
0

> <PUBCHEM_ISOTOPIC_ATOM_COUNT>
0

> <PUBCHEM_COMPONENT_COUNT>
1

> <PUBCHEM_CACTVS_TAUTO_COUNT>
3

> <PUBCHEM_CONFORMER_ID>
009A57EE00000001

> <PUBCHEM_MMFF94_ENERGY>
101.6051

> <PUBCHEM_FEATURE_SELFOVERLAP>
60.972

> <PUBCHEM_SHAPE_FINGERPRINT>
10595046 47 18410291458277693762
11101153 10 18192148415560858855
11297010 23 17620179946327119807
12107183 9 17832133935957215715
12422481 6 17386008308436026628
13782708 43 11600013150032710920
14068700 686 18339646740902832150
14202776 33 18130503162241782911
14415360 78 17973711494995300045
14429114 114 18339921614662235776
14790565 3 18411139125844499466
15064981 194 18271257023160077281
15274700 147 17469905723224550724
15357212 105 18268448874636502072
15400415 2 18341610357137637739
16758388 162 17682675117248538963
17844677 252 18412549790478011098
19053607 189 18410284844571377376
19304144 158 18200868591400551698
20058555 10 18409166610395180628
20691028 202 18198342841072047353
21049683 271 18127128804744133275
23559900 14 18128532665886145242
23729417 116 17978219784964178815
2748736 6 18337662045189414736
3418910 222 17897179119863315757
34797466 226 18059585701817094766
4073 2 18187929546554445402
4144715 1 18408612447997516634
5104073 3 18188207581193455651
5223283 242 17410232611280609926
550186 72 18267300018340160053
6036956 94 18411694396781738719
6058803 2 18263908999568280467
6673363 416 17978239584293466284
6677587 24 16199577117896234464
6898599 12 18412260636473873591

> <PUBCHEM_SHAPE_MULTIPOLES>
619.88
19.81
6.47
1.06
19.1
3.05
-0.13
14.91
-2.33
-4.84
-1.1
0.3
0.72
-1.48

> <PUBCHEM_SHAPE_SELFOVERLAP>
1330.893

> <PUBCHEM_SHAPE_VOLUME>
346

> <PUBCHEM_COORDINATE_TYPE>
2
5
10

$$$$
