177801
  -OEChem-02172602563D

 86 90  0     1  0  0  0  0  0999 V2000
   -6.2569   -0.3998    0.4660 O   0  0  0  0  0  0  0  0  0  0  0  0
   -6.2870   -2.7092    0.3451 O   0  0  0  0  0  0  0  0  0  0  0  0
    2.3692   -0.2444   -0.1643 C   0  0  2  0  0  0  0  0  0  0  0  0
    1.7302    1.1850   -0.4193 C   0  0  1  0  0  0  0  0  0  0  0  0
    3.9423   -0.2354   -0.4923 C   0  0  1  0  0  0  0  0  0  0  0  0
    4.7601    0.9307    0.1632 C   0  0  1  0  0  0  0  0  0  0  0  0
   -0.5627   -0.1373   -0.4067 C   0  0  2  0  0  0  0  0  0  0  0  0
   -2.0963    0.1012   -0.7518 C   0  0  2  0  0  0  0  0  0  0  0  0
    0.2031    1.1631   -0.1307 C   0  0  0  0  0  0  0  0  0  0  0  0
    1.6601   -1.2910   -1.0860 C   0  0  0  0  0  0  0  0  0  0  0  0
    2.5034    2.2181    0.4513 C   0  0  0  0  0  0  0  0  0  0  0  0
    4.6283   -1.6467   -0.3242 C   0  0  2  0  0  0  0  0  0  0  0  0
    3.9969    2.2812    0.1409 C   0  0  0  0  0  0  0  0  0  0  0  0
    0.1726   -1.0570   -1.3929 C   0  0  0  0  0  0  0  0  0  0  0  0
   -2.6771    0.9504    0.4388 C   0  0  2  0  0  0  0  0  0  0  0  0
    5.2002    0.6280    1.6172 C   0  0  0  0  0  0  0  0  0  0  0  0
    2.1503   -0.7005    1.3110 C   0  0  0  0  0  0  0  0  0  0  0  0
    5.7340   -1.7309    0.7603 C   0  0  1  0  0  0  0  0  0  0  0  0
   -4.2463    1.0327    0.5685 C   0  0  0  0  0  0  0  0  0  0  0  0
    1.8560    1.6559   -1.9018 C   0  0  0  0  0  0  0  0  0  0  0  0
   -2.8305   -1.2639   -0.8180 C   0  0  0  0  0  0  0  0  0  0  0  0
   -1.9555    2.3087    0.5447 C   0  0  0  0  0  0  0  0  0  0  0  0
    5.4378   -0.8397    1.9621 C   0  0  0  0  0  0  0  0  0  0  0  0
   -0.4734    2.2430    0.3113 C   0  0  0  0  0  0  0  0  0  0  0  0
    6.0463    1.1975   -0.6772 C   0  0  0  0  0  0  0  0  0  0  0  0
   -4.8302   -0.4050    0.4505 C   0  0  2  0  0  0  0  0  0  0  0  0
   -2.2268    0.8009   -2.1265 C   0  0  0  0  0  0  0  0  0  0  0  0
   -4.3494   -1.1516   -0.7901 C   0  0  0  0  0  0  0  0  0  0  0  0
    5.1852   -2.1290   -1.6787 C   0  0  0  0  0  0  0  0  0  0  0  0
    5.9335   -3.1762    1.2434 C   0  0  0  0  0  0  0  0  0  0  0  0
   -4.6108    1.5715    1.9797 C   0  0  0  0  0  0  0  0  0  0  0  0
   -4.9265    1.9936   -0.4312 C   0  0  0  0  0  0  0  0  0  0  0  0
   -6.8496   -1.6256    0.4080 C   0  0  0  0  0  0  0  0  0  0  0  0
   -8.3308   -1.5184    0.4299 C   0  0  0  0  0  0  0  0  0  0  0  0
    3.9752   -0.0272   -1.5705 H   0  0  0  0  0  0  0  0  0  0  0  0
   -0.5728   -0.6896    0.5415 H   0  0  0  0  0  0  0  0  0  0  0  0
    1.7570   -2.2946   -0.6527 H   0  0  0  0  0  0  0  0  0  0  0  0
    2.1756   -1.3468   -2.0531 H   0  0  0  0  0  0  0  0  0  0  0  0
    2.3518    2.0253    1.5190 H   0  0  0  0  0  0  0  0  0  0  0  0
    2.1177    3.2312    0.2819 H   0  0  0  0  0  0  0  0  0  0  0  0
    3.8631   -2.3819   -0.0581 H   0  0  0  0  0  0  0  0  0  0  0  0
    4.1148    2.7575   -0.8413 H   0  0  0  0  0  0  0  0  0  0  0  0
    4.4674    2.9845    0.8421 H   0  0  0  0  0  0  0  0  0  0  0  0
    0.0892   -0.6735   -2.4140 H   0  0  0  0  0  0  0  0  0  0  0  0
   -0.3125   -2.0401   -1.4223 H   0  0  0  0  0  0  0  0  0  0  0  0
   -2.3710    0.3985    1.3444 H   0  0  0  0  0  0  0  0  0  0  0  0
    4.4769    1.0299    2.3369 H   0  0  0  0  0  0  0  0  0  0  0  0
    6.1238    1.1825    1.8354 H   0  0  0  0  0  0  0  0  0  0  0  0
    2.6307   -0.0405    2.0313 H   0  0  0  0  0  0  0  0  0  0  0  0
    1.1030   -0.7331    1.6083 H   0  0  0  0  0  0  0  0  0  0  0  0
    2.5321   -1.7105    1.4861 H   0  0  0  0  0  0  0  0  0  0  0  0
    6.6950   -1.4215    0.3357 H   0  0  0  0  0  0  0  0  0  0  0  0
    1.4939    2.6865   -2.0107 H   0  0  0  0  0  0  0  0  0  0  0  0
    2.8838    1.6459   -2.2718 H   0  0  0  0  0  0  0  0  0  0  0  0
    1.2736    1.0527   -2.6007 H   0  0  0  0  0  0  0  0  0  0  0  0
   -2.5185   -1.8913    0.0277 H   0  0  0  0  0  0  0  0  0  0  0  0
   -2.5422   -1.8065   -1.7267 H   0  0  0  0  0  0  0  0  0  0  0  0
   -2.1148    2.7333    1.5422 H   0  0  0  0  0  0  0  0  0  0  0  0
   -2.3621    3.0257   -0.1752 H   0  0  0  0  0  0  0  0  0  0  0  0
    6.2663   -0.8978    2.6802 H   0  0  0  0  0  0  0  0  0  0  0  0
    4.5696   -1.2313    2.5036 H   0  0  0  0  0  0  0  0  0  0  0  0
    0.0384    3.1835    0.4844 H   0  0  0  0  0  0  0  0  0  0  0  0
    5.7970    1.3945   -1.7266 H   0  0  0  0  0  0  0  0  0  0  0  0
    6.5834    2.0775   -0.3022 H   0  0  0  0  0  0  0  0  0  0  0  0
    6.7544    0.3691   -0.6649 H   0  0  0  0  0  0  0  0  0  0  0  0
   -4.5008   -0.9703    1.3351 H   0  0  0  0  0  0  0  0  0  0  0  0
   -3.2620    0.9734   -2.4150 H   0  0  0  0  0  0  0  0  0  0  0  0
   -1.7145    1.7662   -2.1624 H   0  0  0  0  0  0  0  0  0  0  0  0
   -1.8049    0.1852   -2.9275 H   0  0  0  0  0  0  0  0  0  0  0  0
   -4.7147   -0.6466   -1.6920 H   0  0  0  0  0  0  0  0  0  0  0  0
   -4.7098   -2.1725   -0.9002 H   0  0  0  0  0  0  0  0  0  0  0  0
    5.5831   -3.1456   -1.6098 H   0  0  0  0  0  0  0  0  0  0  0  0
    4.3999   -2.1450   -2.4413 H   0  0  0  0  0  0  0  0  0  0  0  0
    5.9884   -1.4774   -2.0366 H   0  0  0  0  0  0  0  0  0  0  0  0
    6.7186   -3.2237    2.0060 H   0  0  0  0  0  0  0  0  0  0  0  0
    5.0144   -3.5787    1.6828 H   0  0  0  0  0  0  0  0  0  0  0  0
    6.2355   -3.8357    0.4247 H   0  0  0  0  0  0  0  0  0  0  0  0
   -4.2971    2.6127    2.1090 H   0  0  0  0  0  0  0  0  0  0  0  0
   -5.6926    1.5399    2.1538 H   0  0  0  0  0  0  0  0  0  0  0  0
   -4.1357    0.9768    2.7679 H   0  0  0  0  0  0  0  0  0  0  0  0
   -5.9911    2.1117   -0.1936 H   0  0  0  0  0  0  0  0  0  0  0  0
   -4.4940    2.9973   -0.3995 H   0  0  0  0  0  0  0  0  0  0  0  0
   -4.8892    1.6388   -1.4600 H   0  0  0  0  0  0  0  0  0  0  0  0
   -8.6732   -0.9441   -0.4348 H   0  0  0  0  0  0  0  0  0  0  0  0
   -8.6539   -1.0404    1.3581 H   0  0  0  0  0  0  0  0  0  0  0  0
   -8.7755   -2.5166    0.3809 H   0  0  0  0  0  0  0  0  0  0  0  0
  1 26  1  0  0  0  0
  1 33  1  0  0  0  0
  2 33  2  0  0  0  0
  3  4  1  0  0  0  0
  3  5  1  0  0  0  0
  3 10  1  0  0  0  0
  3 17  1  0  0  0  0
  4  9  1  0  0  0  0
  4 11  1  0  0  0  0
  4 20  1  0  0  0  0
  5  6  1  0  0  0  0
  5 12  1  0  0  0  0
  5 35  1  0  0  0  0
  6 13  1  0  0  0  0
  6 16  1  0  0  0  0
  6 25  1  0  0  0  0
  7  8  1  0  0  0  0
  7  9  1  0  0  0  0
  7 14  1  0  0  0  0
  7 36  1  0  0  0  0
  8 15  1  0  0  0  0
  8 21  1  0  0  0  0
  8 27  1  0  0  0  0
  9 24  2  0  0  0  0
 10 14  1  0  0  0  0
 10 37  1  0  0  0  0
 10 38  1  0  0  0  0
 11 13  1  0  0  0  0
 11 39  1  0  0  0  0
 11 40  1  0  0  0  0
 12 18  1  0  0  0  0
 12 29  1  0  0  0  0
 12 41  1  0  0  0  0
 13 42  1  0  0  0  0
 13 43  1  0  0  0  0
 14 44  1  0  0  0  0
 14 45  1  0  0  0  0
 15 19  1  0  0  0  0
 15 22  1  0  0  0  0
 15 46  1  0  0  0  0
 16 23  1  0  0  0  0
 16 47  1  0  0  0  0
 16 48  1  0  0  0  0
 17 49  1  0  0  0  0
 17 50  1  0  0  0  0
 17 51  1  0  0  0  0
 18 23  1  0  0  0  0
 18 30  1  0  0  0  0
 18 52  1  0  0  0  0
 19 26  1  0  0  0  0
 19 31  1  0  0  0  0
 19 32  1  0  0  0  0
 20 53  1  0  0  0  0
 20 54  1  0  0  0  0
 20 55  1  0  0  0  0
 21 28  1  0  0  0  0
 21 56  1  0  0  0  0
 21 57  1  0  0  0  0
 22 24  1  0  0  0  0
 22 58  1  0  0  0  0
 22 59  1  0  0  0  0
 23 60  1  0  0  0  0
 23 61  1  0  0  0  0
 24 62  1  0  0  0  0
 25 63  1  0  0  0  0
 25 64  1  0  0  0  0
 25 65  1  0  0  0  0
 26 28  1  0  0  0  0
 26 66  1  0  0  0  0
 27 67  1  0  0  0  0
 27 68  1  0  0  0  0
 27 69  1  0  0  0  0
 28 70  1  0  0  0  0
 28 71  1  0  0  0  0
 29 72  1  0  0  0  0
 29 73  1  0  0  0  0
 29 74  1  0  0  0  0
 30 75  1  0  0  0  0
 30 76  1  0  0  0  0
 30 77  1  0  0  0  0
 31 78  1  0  0  0  0
 31 79  1  0  0  0  0
 31 80  1  0  0  0  0
 32 81  1  0  0  0  0
 32 82  1  0  0  0  0
 32 83  1  0  0  0  0
 33 34  1  0  0  0  0
 34 84  1  0  0  0  0
 34 85  1  0  0  0  0
 34 86  1  0  0  0  0
M  END
> <PUBCHEM_COMPOUND_CID>
177801

> <PUBCHEM_CONFORMER_RMSD>
0.8

> <PUBCHEM_CONFORMER_DIVERSEORDER>
2
1

> <PUBCHEM_MMFF94_PARTIAL_CHARGES>
11
1 -0.43
2 -0.57
22 0.14
24 -0.29
26 0.28
33 0.66
34 0.06
4 0.14
62 0.15
7 0.14
9 -0.28

> <PUBCHEM_EFFECTIVE_ROTOR_COUNT>
4.6

> <PUBCHEM_PHARMACOPHORE_FEATURES>
7
1 2 acceptor
3 19 31 32 hydrophobe
6 3 4 5 6 11 13 rings
6 3 4 7 9 10 14 rings
6 5 6 12 16 18 23 rings
6 7 8 9 15 22 24 rings
6 8 15 19 21 26 28 rings

> <PUBCHEM_HEAVY_ATOM_COUNT>
34

> <PUBCHEM_ATOM_DEF_STEREO_COUNT>
10

> <PUBCHEM_ATOM_UDEF_STEREO_COUNT>
0

> <PUBCHEM_BOND_DEF_STEREO_COUNT>
0

> <PUBCHEM_BOND_UDEF_STEREO_COUNT>
0

> <PUBCHEM_ISOTOPIC_ATOM_COUNT>
0

> <PUBCHEM_COMPONENT_COUNT>
1

> <PUBCHEM_CACTVS_TAUTO_COUNT>
1

> <PUBCHEM_CONFORMER_ID>
0002B68900000002

> <PUBCHEM_MMFF94_ENERGY>
160.3998

> <PUBCHEM_FEATURE_SELFOVERLAP>
35.597

> <PUBCHEM_SHAPE_FINGERPRINT>
10 15 17917709132078213835
10319926 262 17917152697563878033
11646440 116 16630530652012912569
117089 54 18194685852793068138
11719270 70 18201721756215098023
11963148 33 18193554690912724519
12166972 35 18187085078610920925
12236239 1 18334858303122495657
12422481 6 18059017176832267908
12596602 18 18408319977740595457
13533116 47 18334573564413446690
13782708 43 17894909616110098523
13811026 1 18411411795868916011
13914758 101 17603862291985611285
14211702 104 18334863852536916035
14341114 176 18272373065963650334
15001296 14 18187924057464317563
15082195 135 8502366763625456774
15183329 4 18202279212461846372
15788980 27 18335137570528214228
15840311 113 11383839276918230315
17349148 13 18114468872836824360
1813 80 17894632535264954644
19301679 30 18412827958392765505
1979834 28 17489869311315700014
19841028 212 18187080667948670147
20028762 73 18410575063442385762
21033648 29 15410622454410092089
21130935 74 18410572855670433650
21267235 1 18343028799729497533
21424621 283 12607416494296063927
21792934 111 18130788941693270561
22149856 69 17845954973923467419
23522609 53 18046660886819540732
23559900 14 17702398264112103182
23569943 247 17824537461808134482
23576562 1 11098155400442129523
2838139 119 11311784942586393371
3383291 50 18409730686252928923
350125 39 18201159948896803573
3680242 22 18341051826778943040
392239 28 18271254902010586123
4073 2 18117000089952893930
4197921 191 18410860996478520233
439807 62 18335422387711849659
465052 167 18411136931284801886
474113 269 18341040875124404991
5104073 3 18201717340719218360
59682541 52 13406788905151363050
6081469 158 18187640337401021663
6086070 43 17677036972241071173

> <PUBCHEM_SHAPE_MULTIPOLES>
687.97
18.45
2.87
1.61
16.14
0.42
-0.06
10.94
5.74
-0.84
0.32
-1.02
0.07
-0.61

> <PUBCHEM_SHAPE_SELFOVERLAP>
1447.071

> <PUBCHEM_SHAPE_VOLUME>
382.1

> <PUBCHEM_COORDINATE_TYPE>
2
5
10

$$$$
