10337211
  -OEChem-02172602213D

 47 49  0     1  0  0  0  0  0999 V2000
   -1.3543    0.7268    0.0484 O   0  0  0  0  0  0  0  0  0  0  0  0
    2.8801    2.8141   -0.2987 O   0  0  0  0  0  0  0  0  0  0  0  0
    0.3256   -2.7496    1.4350 O   0  0  0  0  0  0  0  0  0  0  0  0
   -7.5827    0.3534   -0.5482 O   0  0  0  0  0  0  0  0  0  0  0  0
   -2.0023   -0.5370   -0.1645 C   0  0  1  0  0  0  0  0  0  0  0  0
   -1.6770   -1.5163    0.9617 C   0  0  0  0  0  0  0  0  0  0  0  0
    0.6384   -0.5502    0.6361 C   0  0  0  0  0  0  0  0  0  0  0  0
    0.0046    0.6131    0.1897 C   0  0  0  0  0  0  0  0  0  0  0  0
   -0.1847   -1.7131    1.0269 C   0  0  0  0  0  0  0  0  0  0  0  0
   -3.4941   -0.2991   -0.2669 C   0  0  0  0  0  0  0  0  0  0  0  0
    2.7849    0.5333    0.4325 C   0  0  0  0  0  0  0  0  0  0  0  0
    2.0299   -0.5958    0.7522 C   0  0  0  0  0  0  0  0  0  0  0  0
    0.7635    1.7454   -0.1092 C   0  0  0  0  0  0  0  0  0  0  0  0
    2.1532    1.7027    0.0076 C   0  0  0  0  0  0  0  0  0  0  0  0
    4.2720    0.4753    0.5596 C   0  0  0  0  0  0  0  0  0  0  0  0
   -4.1659   -0.5903   -1.4534 C   0  0  0  0  0  0  0  0  0  0  0  0
   -4.1946    0.2110    0.8256 C   0  0  0  0  0  0  0  0  0  0  0  0
    4.9512    0.0163   -0.7065 C   0  0  0  0  0  0  0  0  0  0  0  0
   -5.5402   -0.3709   -1.5478 C   0  0  0  0  0  0  0  0  0  0  0  0
   -5.5689    0.4304    0.7314 C   0  0  0  0  0  0  0  0  0  0  0  0
   -6.2418    0.1393   -0.4554 C   0  0  0  0  0  0  0  0  0  0  0  0
    5.7145   -1.0782   -0.8894 C   0  0  0  0  0  0  0  0  0  0  0  0
    3.1369    3.7324    0.7615 C   0  0  0  0  0  0  0  0  0  0  0  0
    6.3634   -1.4770   -2.1844 C   0  0  0  0  0  0  0  0  0  0  0  0
    5.9883   -2.0160    0.2564 C   0  0  0  0  0  0  0  0  0  0  0  0
   -1.6393   -0.9405   -1.1214 H   0  0  0  0  0  0  0  0  0  0  0  0
   -2.1545   -2.4847    0.7747 H   0  0  0  0  0  0  0  0  0  0  0  0
   -1.9912   -1.1498    1.9455 H   0  0  0  0  0  0  0  0  0  0  0  0
    2.5267   -1.4989    1.0970 H   0  0  0  0  0  0  0  0  0  0  0  0
    0.2743    2.6570   -0.4433 H   0  0  0  0  0  0  0  0  0  0  0  0
    4.6830    1.4594    0.8108 H   0  0  0  0  0  0  0  0  0  0  0  0
    4.5348   -0.1346    1.4295 H   0  0  0  0  0  0  0  0  0  0  0  0
   -3.6335   -0.9882   -2.3131 H   0  0  0  0  0  0  0  0  0  0  0  0
   -3.6870    0.4551    1.7545 H   0  0  0  0  0  0  0  0  0  0  0  0
    4.8005    0.6672   -1.5676 H   0  0  0  0  0  0  0  0  0  0  0  0
   -6.0589   -0.5994   -2.4750 H   0  0  0  0  0  0  0  0  0  0  0  0
   -6.1035    0.8308    1.5885 H   0  0  0  0  0  0  0  0  0  0  0  0
    3.4287    3.2204    1.6840 H   0  0  0  0  0  0  0  0  0  0  0  0
    2.2450    4.3395    0.9455 H   0  0  0  0  0  0  0  0  0  0  0  0
    3.9519    4.3930    0.4535 H   0  0  0  0  0  0  0  0  0  0  0  0
    6.1605   -0.7492   -2.9768 H   0  0  0  0  0  0  0  0  0  0  0  0
    7.4492   -1.5441   -2.0620 H   0  0  0  0  0  0  0  0  0  0  0  0
    5.9864   -2.4489   -2.5187 H   0  0  0  0  0  0  0  0  0  0  0  0
    5.1989   -2.0357    1.0109 H   0  0  0  0  0  0  0  0  0  0  0  0
    6.0680   -3.0460   -0.1105 H   0  0  0  0  0  0  0  0  0  0  0  0
    6.9369   -1.7575    0.7374 H   0  0  0  0  0  0  0  0  0  0  0  0
   -7.9043    0.7080    0.2986 H   0  0  0  0  0  0  0  0  0  0  0  0
  1  5  1  0  0  0  0
  1  8  1  0  0  0  0
  2 14  1  0  0  0  0
  2 23  1  0  0  0  0
  3  9  2  0  0  0  0
  4 21  1  0  0  0  0
  4 47  1  0  0  0  0
  5  6  1  0  0  0  0
  5 10  1  0  0  0  0
  5 26  1  0  0  0  0
  6  9  1  0  0  0  0
  6 27  1  0  0  0  0
  6 28  1  0  0  0  0
  7  8  2  0  0  0  0
  7  9  1  0  0  0  0
  7 12  1  0  0  0  0
  8 13  1  0  0  0  0
 10 16  2  0  0  0  0
 10 17  1  0  0  0  0
 11 12  2  0  0  0  0
 11 14  1  0  0  0  0
 11 15  1  0  0  0  0
 12 29  1  0  0  0  0
 13 14  2  0  0  0  0
 13 30  1  0  0  0  0
 15 18  1  0  0  0  0
 15 31  1  0  0  0  0
 15 32  1  0  0  0  0
 16 19  1  0  0  0  0
 16 33  1  0  0  0  0
 17 20  2  0  0  0  0
 17 34  1  0  0  0  0
 18 22  2  0  0  0  0
 18 35  1  0  0  0  0
 19 21  2  0  0  0  0
 19 36  1  0  0  0  0
 20 21  1  0  0  0  0
 20 37  1  0  0  0  0
 22 24  1  0  0  0  0
 22 25  1  0  0  0  0
 23 38  1  0  0  0  0
 23 39  1  0  0  0  0
 23 40  1  0  0  0  0
 24 41  1  0  0  0  0
 24 42  1  0  0  0  0
 24 43  1  0  0  0  0
 25 44  1  0  0  0  0
 25 45  1  0  0  0  0
 25 46  1  0  0  0  0
M  END
> <PUBCHEM_COMPOUND_CID>
10337211

> <PUBCHEM_CONFORMER_RMSD>
0.8

> <PUBCHEM_CONFORMER_DIVERSEORDER>
1
14
21
5
23
11
17
8
19
7
16
9
24
12
13
18
20
22
15
10
6
4
2
3

> <PUBCHEM_MMFF94_PARTIAL_CHARGES>
33
1 -0.36
10 -0.14
11 -0.14
12 -0.15
13 -0.15
14 0.08
15 0.28
16 -0.15
17 -0.15
18 -0.29
19 -0.15
2 -0.36
20 -0.15
21 0.08
22 -0.28
23 0.28
24 0.14
25 0.14
29 0.15
3 -0.57
30 0.15
33 0.15
34 0.15
35 0.15
36 0.15
37 0.15
4 -0.53
47 0.45
5 0.42
6 0.06
7 0.09
8 0.08
9 0.42

> <PUBCHEM_EFFECTIVE_ROTOR_COUNT>
4.6

> <PUBCHEM_PHARMACOPHORE_FEATURES>
8
1 1 acceptor
1 2 acceptor
1 3 acceptor
1 4 donor
3 22 24 25 hydrophobe
6 1 5 6 7 8 9 rings
6 10 16 17 19 20 21 rings
6 7 8 11 12 13 14 rings

> <PUBCHEM_HEAVY_ATOM_COUNT>
25

> <PUBCHEM_ATOM_DEF_STEREO_COUNT>
1

> <PUBCHEM_ATOM_UDEF_STEREO_COUNT>
0

> <PUBCHEM_BOND_DEF_STEREO_COUNT>
0

> <PUBCHEM_BOND_UDEF_STEREO_COUNT>
0

> <PUBCHEM_ISOTOPIC_ATOM_COUNT>
0

> <PUBCHEM_COMPONENT_COUNT>
1

> <PUBCHEM_CACTVS_TAUTO_COUNT>
4

> <PUBCHEM_CONFORMER_ID>
009DBBBB00000001

> <PUBCHEM_MMFF94_ENERGY>
76.0416

> <PUBCHEM_FEATURE_SELFOVERLAP>
40.626

> <PUBCHEM_SHAPE_FINGERPRINT>
10411042 1 17829876647164841667
10670039 82 17458342988088839428
10693767 8 18342166722806448430
11796584 16 16272208600092419063
11991303 11 17240772808322396291
12011746 2 18186804664379914082
12107698 1 18273214175073950532
12166972 35 17917712400575070512
12236239 1 18059852887753596193
12403259 415 17821997731929311509
12895836 83 16371302124801848934
13533116 47 18060137665555259776
13540713 4 18045793539885320162
13544592 145 18334296500310165380
1361 2 18202285775863568894
14251751 18 15985096444609509479
14251757 52 15430039863630993246
15099037 51 18335139808364340122
15183329 4 18342179942578011678
15475509 8 18269286681248526764
18222031 100 18130794443419613598
18335252 114 18410845547950570837
19784866 240 16988571190776703998
20612939 158 18410576218640420805
20832881 197 18409450267578638136
21033648 29 17676764391677296073
21267235 1 18411423908341420009
21279426 13 18334862748381790754
21307412 95 18269857375361039846
21521239 73 18342729758695651711
21641784 216 17531533066334779316
21781051 124 17603596243766758307
221357 26 18408882915009782492
2215653 11 18411987961990751166
23536364 44 18264763264515829412
23536379 177 17203609280911199083
23559900 14 18339361976444513168
23569914 2 13770990225960921630
23569943 247 18055923086809470906
29717793 49 18060419135857026013
3004659 81 17703791418575365998
335352 9 18334575754836321774
404807 14 16194277204691762678
4058900 60 17241325751217516035
474 4 18335414703909894529
5104073 3 18042958964385866193
54076057 255 16153716439975783340
59682541 35 10303801090828409966
59755656 215 18261673683991161247
59755656 520 18334012800957666075
633830 44 18337659940544137351
9658208 31 17603870069417082426
9971528 1 18273210924369178976
9981440 41 16762231495113591865

> <PUBCHEM_SHAPE_MULTIPOLES>
491.01
16.62
2.56
1.35
9.58
1.97
0.4
-3.91
7.26
-4.46
-0.59
-0.29
-0.7
0.77

> <PUBCHEM_SHAPE_SELFOVERLAP>
1056.371

> <PUBCHEM_SHAPE_VOLUME>
271.4

> <PUBCHEM_COORDINATE_TYPE>
2
5
10

$$$$
