5354405
  -OEChem-02172602413D

 14 13  0     0  0  0  0  0  0999 V2000
   -1.4059    0.4219   -0.2985 O   0  0  0  0  0  0  0  0  0  0  0  0
    0.6092   -0.7853    0.0540 C   0  0  0  0  0  0  0  0  0  0  0  0
   -0.7203   -0.7401   -0.0730 C   0  0  0  0  0  0  0  0  0  0  0  0
   -2.7081    0.3669    0.2614 C   0  0  0  0  0  0  0  0  0  0  0  0
    1.4469    0.3866   -0.0348 C   0  0  0  0  0  0  0  0  0  0  0  0
    2.7782    0.3501    0.0910 C   0  0  0  0  0  0  0  0  0  0  0  0
    1.0881   -1.7448    0.2285 H   0  0  0  0  0  0  0  0  0  0  0  0
   -1.3360   -1.6269   -0.0140 H   0  0  0  0  0  0  0  0  0  0  0  0
   -3.3198   -0.3903   -0.2417 H   0  0  0  0  0  0  0  0  0  0  0  0
   -3.1845    1.3405    0.1124 H   0  0  0  0  0  0  0  0  0  0  0  0
   -2.6672    0.1691    1.3383 H   0  0  0  0  0  0  0  0  0  0  0  0
    0.9760    1.3496   -0.2123 H   0  0  0  0  0  0  0  0  0  0  0  0
    3.3599    1.2628    0.0158 H   0  0  0  0  0  0  0  0  0  0  0  0
    3.3139   -0.5763    0.2696 H   0  0  0  0  0  0  0  0  0  0  0  0
  1  3  1  0  0  0  0
  1  4  1  0  0  0  0
  2  3  2  0  0  0  0
  2  5  1  0  0  0  0
  2  7  1  0  0  0  0
  3  8  1  0  0  0  0
  4  9  1  0  0  0  0
  4 10  1  0  0  0  0
  4 11  1  0  0  0  0
  5  6  2  0  0  0  0
  5 12  1  0  0  0  0
  6 13  1  0  0  0  0
  6 14  1  0  0  0  0
M  END
> <PUBCHEM_COMPOUND_CID>
5354405

> <PUBCHEM_CONFORMER_RMSD>
0.4

> <PUBCHEM_CONFORMER_DIVERSEORDER>
1
8
6
2
5
3
4
7

> <PUBCHEM_MMFF94_PARTIAL_CHARGES>
11
1 -0.36
12 0.15
13 0.15
14 0.15
2 -0.15
3 -0.07
4 0.28
5 -0.15
6 -0.3
7 0.15
8 0.15

> <PUBCHEM_EFFECTIVE_ROTOR_COUNT>
2

> <PUBCHEM_PHARMACOPHORE_FEATURES>
2
1 1 acceptor
1 6 hydrophobe

> <PUBCHEM_HEAVY_ATOM_COUNT>
6

> <PUBCHEM_ATOM_DEF_STEREO_COUNT>
0

> <PUBCHEM_ATOM_UDEF_STEREO_COUNT>
0

> <PUBCHEM_BOND_DEF_STEREO_COUNT>
1

> <PUBCHEM_BOND_UDEF_STEREO_COUNT>
0

> <PUBCHEM_ISOTOPIC_ATOM_COUNT>
0

> <PUBCHEM_COMPONENT_COUNT>
1

> <PUBCHEM_CACTVS_TAUTO_COUNT>
1

> <PUBCHEM_CONFORMER_ID>
0051B3A500000001

> <PUBCHEM_MMFF94_ENERGY>
12.4659

> <PUBCHEM_FEATURE_SELFOVERLAP>
10.148

> <PUBCHEM_SHAPE_FINGERPRINT>
139733 1 18410854369269902086
14390081 3 18131066039111908321
16714656 1 18411136956590336492
20096714 4 18410853282711631030
21040471 1 18411136952474808126
29004967 10 11314023574030160446
5460574 1 9295291642183417869

> <PUBCHEM_SHAPE_MULTIPOLES>
117.61
4
0.9
0.63
0.19
0.12
0.01
-1.14
0.3
0.02
0
0.02
0
-0.02

> <PUBCHEM_SHAPE_SELFOVERLAP>
210.065

> <PUBCHEM_SHAPE_VOLUME>
76.6

> <PUBCHEM_COORDINATE_TYPE>
2
5
10

$$$$
