101707
  -OEChem-02172602593D

 35 38  0     1  0  0  0  0  0999 V2000
    0.0690   -1.2909   -0.0985 N   0  0  2  0  0  0  0  0  0  0  0  0
   -0.3408    0.0245    0.4521 C   0  0  1  0  0  0  0  0  0  0  0  0
    0.5938    1.0935   -0.1662 C   0  0  0  0  0  0  0  0  0  0  0  0
   -0.9053   -2.3362    0.2262 C   0  0  0  0  0  0  0  0  0  0  0  0
   -1.8127    0.3545    0.2121 C   0  0  0  0  0  0  0  0  0  0  0  0
    1.4048   -1.6631    0.3980 C   0  0  0  0  0  0  0  0  0  0  0  0
   -2.2195   -2.0399   -0.4920 C   0  0  0  0  0  0  0  0  0  0  0  0
   -2.7081   -0.6434   -0.2175 C   0  0  0  0  0  0  0  0  0  0  0  0
    2.0562    0.7251   -0.1055 C   0  0  0  0  0  0  0  0  0  0  0  0
    2.4443   -0.6027    0.1322 C   0  0  0  0  0  0  0  0  0  0  0  0
   -2.3192    1.6361    0.4860 C   0  0  0  0  0  0  0  0  0  0  0  0
   -4.0597   -0.3330   -0.4293 C   0  0  0  0  0  0  0  0  0  0  0  0
    3.0347    1.7015   -0.3354 C   0  0  0  0  0  0  0  0  0  0  0  0
    3.8067   -0.9282    0.1762 C   0  0  0  0  0  0  0  0  0  0  0  0
   -3.6687    1.9329    0.2857 C   0  0  0  0  0  0  0  0  0  0  0  0
   -4.5369    0.9511   -0.1791 C   0  0  0  0  0  0  0  0  0  0  0  0
    4.3878    1.3656   -0.3019 C   0  0  0  0  0  0  0  0  0  0  0  0
    4.7735    0.0525   -0.0431 C   0  0  0  0  0  0  0  0  0  0  0  0
   -0.2048    0.0111    1.5443 H   0  0  0  0  0  0  0  0  0  0  0  0
    0.4642    2.0464    0.3610 H   0  0  0  0  0  0  0  0  0  0  0  0
    0.3307    1.2603   -1.2197 H   0  0  0  0  0  0  0  0  0  0  0  0
   -1.0640   -2.4037    1.3110 H   0  0  0  0  0  0  0  0  0  0  0  0
   -0.5466   -3.3158   -0.1128 H   0  0  0  0  0  0  0  0  0  0  0  0
    1.7195   -2.5852   -0.1069 H   0  0  0  0  0  0  0  0  0  0  0  0
    1.3804   -1.8593    1.4781 H   0  0  0  0  0  0  0  0  0  0  0  0
   -2.9700   -2.7696   -0.1651 H   0  0  0  0  0  0  0  0  0  0  0  0
   -2.0901   -2.1561   -1.5755 H   0  0  0  0  0  0  0  0  0  0  0  0
   -1.6712    2.4211    0.8658 H   0  0  0  0  0  0  0  0  0  0  0  0
   -4.7484   -1.0959   -0.7838 H   0  0  0  0  0  0  0  0  0  0  0  0
    2.7465    2.7295   -0.5398 H   0  0  0  0  0  0  0  0  0  0  0  0
    4.1206   -1.9487    0.3801 H   0  0  0  0  0  0  0  0  0  0  0  0
   -4.0405    2.9316    0.4957 H   0  0  0  0  0  0  0  0  0  0  0  0
   -5.5858    1.1825   -0.3384 H   0  0  0  0  0  0  0  0  0  0  0  0
    5.1408    2.1286   -0.4765 H   0  0  0  0  0  0  0  0  0  0  0  0
    5.8274   -0.2080   -0.0123 H   0  0  0  0  0  0  0  0  0  0  0  0
  1  2  1  0  0  0  0
  1  4  1  0  0  0  0
  1  6  1  0  0  0  0
  2  3  1  0  0  0  0
  2  5  1  0  0  0  0
  2 19  1  0  0  0  0
  3  9  1  0  0  0  0
  3 20  1  0  0  0  0
  3 21  1  0  0  0  0
  4  7  1  0  0  0  0
  4 22  1  0  0  0  0
  4 23  1  0  0  0  0
  5  8  1  0  0  0  0
  5 11  2  0  0  0  0
  6 10  1  0  0  0  0
  6 24  1  0  0  0  0
  6 25  1  0  0  0  0
  7  8  1  0  0  0  0
  7 26  1  0  0  0  0
  7 27  1  0  0  0  0
  8 12  2  0  0  0  0
  9 10  1  0  0  0  0
  9 13  2  0  0  0  0
 10 14  2  0  0  0  0
 11 15  1  0  0  0  0
 11 28  1  0  0  0  0
 12 16  1  0  0  0  0
 12 29  1  0  0  0  0
 13 17  1  0  0  0  0
 13 30  1  0  0  0  0
 14 18  1  0  0  0  0
 14 31  1  0  0  0  0
 15 16  2  0  0  0  0
 15 32  1  0  0  0  0
 16 33  1  0  0  0  0
 17 18  2  0  0  0  0
 17 34  1  0  0  0  0
 18 35  1  0  0  0  0
M  END
> <PUBCHEM_COMPOUND_CID>
101707

> <PUBCHEM_CONFORMER_RMSD>
0.6

> <PUBCHEM_CONFORMER_DIVERSEORDER>
1
2
3

> <PUBCHEM_MMFF94_PARTIAL_CHARGES>
26
1 -0.81
10 -0.14
11 -0.15
12 -0.15
13 -0.15
14 -0.15
15 -0.15
16 -0.15
17 -0.15
18 -0.15
2 0.41
28 0.15
29 0.15
3 0.14
30 0.15
31 0.15
32 0.15
33 0.15
34 0.15
35 0.15
4 0.27
5 -0.14
6 0.41
7 0.14
8 -0.14
9 -0.14

> <PUBCHEM_EFFECTIVE_ROTOR_COUNT>
0.8

> <PUBCHEM_PHARMACOPHORE_FEATURES>
5
1 1 cation
6 1 2 3 6 9 10 rings
6 1 2 4 5 7 8 rings
6 5 8 11 12 15 16 rings
6 9 10 13 14 17 18 rings

> <PUBCHEM_HEAVY_ATOM_COUNT>
18

> <PUBCHEM_ATOM_DEF_STEREO_COUNT>
0

> <PUBCHEM_ATOM_UDEF_STEREO_COUNT>
1

> <PUBCHEM_BOND_DEF_STEREO_COUNT>
0

> <PUBCHEM_BOND_UDEF_STEREO_COUNT>
0

> <PUBCHEM_ISOTOPIC_ATOM_COUNT>
0

> <PUBCHEM_COMPONENT_COUNT>
1

> <PUBCHEM_CACTVS_TAUTO_COUNT>
1

> <PUBCHEM_CONFORMER_ID>
00018D4B00000001

> <PUBCHEM_MMFF94_ENERGY>
49.8729

> <PUBCHEM_FEATURE_SELFOVERLAP>
25.44

> <PUBCHEM_SHAPE_FINGERPRINT>
10062212 137 18411409622663300866
10411042 1 17329711436589370730
10608611 8 18341048635460161680
10616163 171 18341333391538971342
10646746 165 18342175596334631120
10967382 1 18338517443401629272
11132069 177 18412258441566178480
11471102 20 18335419045889721932
12107183 9 17762054337508960168
12173636 292 18412820313350991903
12236239 1 18333448737778948865
12390115 104 17986691306769263753
12403814 3 17894625942321038109
12500047 106 18341327868258066000
12644460 14 17968094153721288562
13140716 1 18335415786072926122
13380535 76 18412546496158804743
13583140 156 17167581596341649049
138480 1 17617941335566962051
14790565 3 18270408170483049865
14897335 6 18410293605396688714
15196674 1 18410292518769962830
15420108 30 16400577356203841818
15442244 35 18337669720469604338
15536298 74 18341895164992684478
15775835 57 18408044000332455725
16945 1 18268427013141896795
17492 89 18410856589995756846
18186145 218 18335699416833003900
19862831 5 18131071528027273992
200 152 18131911572175147053
20300324 65 18131629011025293813
20510252 161 18269842063411622115
21267235 1 18410582789855844747
21524375 3 18410575063367785411
231179 274 17604140450239864364
23227448 37 18411136965401784999
23402539 116 18272363174712178389
23402655 69 18411139156162231316
23557571 272 18129107886180823071
23558518 356 17754458177035116840
23559900 14 18201718492393276840
2748010 2 17331958833570044931
2838139 119 17097748220391521469
335352 9 18337954476848789230
34934 24 18408881858853613168
350125 39 18410859897541704105
3545911 37 18410858767400828700
4028521 119 18408035213140643645
4214541 1 18411418418708655404
4340502 62 17167869630313468283
474 4 17822295729455169060
495365 180 17489294326805646032
4990 188 18060145319049428428
5104073 3 18408322207113303168
58051976 378 18342455885673573469
633830 44 17603868931545932914
69090 78 18410291406368151913
77779 3 18410294713508800596
7832392 63 18409729586492328340
9709674 26 18342746229721139022

> <PUBCHEM_SHAPE_MULTIPOLES>
365.45
9.1
2.26
0.7
2.44
0.47
0
-3.22
0.78
-0.74
-0.04
-0.08
0
-0.65

> <PUBCHEM_SHAPE_SELFOVERLAP>
809.25

> <PUBCHEM_SHAPE_VOLUME>
194.1

> <PUBCHEM_COORDINATE_TYPE>
2
5
10

$$$$
