1140026
  -OEChem-02172602453D

 52 55  0     0  0  0  0  0  0999 V2000
   -0.5391    3.3477    0.0552 S   0  0  0  0  0  0  0  0  0  0  0  0
   -3.7133    2.2561    0.6042 O   0  0  0  0  0  0  0  0  0  0  0  0
    1.3036    1.2748    0.1210 N   0  0  0  0  0  0  0  0  0  0  0  0
    1.9214    1.2106   -1.9766 N   0  0  0  0  0  0  0  0  0  0  0  0
    0.9312    2.1628   -1.8371 N   0  0  0  0  0  0  0  0  0  0  0  0
   -2.4649    0.6298   -0.5429 N   0  0  0  0  0  0  0  0  0  0  0  0
    1.3309    0.9884    1.5596 C   0  0  0  0  0  0  0  0  0  0  0  0
    1.8300   -0.4722    1.7947 C   0  0  0  0  0  0  0  0  0  0  0  0
    2.9796   -0.8894    0.8999 C   0  0  0  0  0  0  0  0  0  0  0  0
   -0.0700    1.1192    2.1884 C   0  0  0  0  0  0  0  0  0  0  0  0
    2.2822    1.9855    2.2504 C   0  0  0  0  0  0  0  0  0  0  0  0
    2.1431    0.6809   -0.7904 C   0  0  0  0  0  0  0  0  0  0  0  0
    3.0939   -0.3423   -0.3926 C   0  0  0  0  0  0  0  0  0  0  0  0
    0.5838    2.1958   -0.5697 C   0  0  0  0  0  0  0  0  0  0  0  0
    3.8793   -1.8790    1.3122 C   0  0  0  0  0  0  0  0  0  0  0  0
    4.1092   -0.7777   -1.2491 C   0  0  0  0  0  0  0  0  0  0  0  0
    4.8943   -2.3041    0.4548 C   0  0  0  0  0  0  0  0  0  0  0  0
    5.0087   -1.7552   -0.8220 C   0  0  0  0  0  0  0  0  0  0  0  0
   -2.0231    2.9667   -0.9206 C   0  0  0  0  0  0  0  0  0  0  0  0
   -2.8350    1.9211   -0.1865 C   0  0  0  0  0  0  0  0  0  0  0  0
   -3.0059   -0.5859   -0.0600 C   0  0  0  0  0  0  0  0  0  0  0  0
   -2.5185   -1.7978   -0.5216 C   0  0  0  0  0  0  0  0  0  0  0  0
   -1.4208   -1.8715   -1.5328 C   0  0  0  0  0  0  0  0  0  0  0  0
   -4.0248   -0.5296    0.8781 C   0  0  0  0  0  0  0  0  0  0  0  0
   -3.0637   -2.9850   -0.0327 C   0  0  0  0  0  0  0  0  0  0  0  0
   -1.9523   -1.8886   -2.9625 C   0  0  0  0  0  0  0  0  0  0  0  0
   -4.5701   -1.7167    1.3671 C   0  0  0  0  0  0  0  0  0  0  0  0
   -4.0896   -2.9444    0.9116 C   0  0  0  0  0  0  0  0  0  0  0  0
    1.0101   -1.1762    1.5930 H   0  0  0  0  0  0  0  0  0  0  0  0
    2.1099   -0.6016    2.8481 H   0  0  0  0  0  0  0  0  0  0  0  0
   -0.0795    0.6289    3.1711 H   0  0  0  0  0  0  0  0  0  0  0  0
   -0.3652    2.1496    2.3965 H   0  0  0  0  0  0  0  0  0  0  0  0
   -0.8357    0.6213    1.5915 H   0  0  0  0  0  0  0  0  0  0  0  0
    2.3349    1.7958    3.3284 H   0  0  0  0  0  0  0  0  0  0  0  0
    3.3004    1.9182    1.8505 H   0  0  0  0  0  0  0  0  0  0  0  0
    1.9515    3.0211    2.1132 H   0  0  0  0  0  0  0  0  0  0  0  0
    3.7919   -2.3272    2.2984 H   0  0  0  0  0  0  0  0  0  0  0  0
    4.2146   -0.3629   -2.2483 H   0  0  0  0  0  0  0  0  0  0  0  0
    5.5930   -3.0696    0.7801 H   0  0  0  0  0  0  0  0  0  0  0  0
    5.7988   -2.0915   -1.4872 H   0  0  0  0  0  0  0  0  0  0  0  0
   -1.7759    2.6437   -1.9367 H   0  0  0  0  0  0  0  0  0  0  0  0
   -2.6295    3.8744   -1.0056 H   0  0  0  0  0  0  0  0  0  0  0  0
   -1.7331    0.5538   -1.2411 H   0  0  0  0  0  0  0  0  0  0  0  0
   -0.6781   -1.0779   -1.4021 H   0  0  0  0  0  0  0  0  0  0  0  0
   -0.8479   -2.7948   -1.3701 H   0  0  0  0  0  0  0  0  0  0  0  0
   -4.4531    0.3735    1.2849 H   0  0  0  0  0  0  0  0  0  0  0  0
   -2.7016   -3.9493   -0.3795 H   0  0  0  0  0  0  0  0  0  0  0  0
   -2.6260   -2.7363   -3.1269 H   0  0  0  0  0  0  0  0  0  0  0  0
   -1.1229   -1.9722   -3.6719 H   0  0  0  0  0  0  0  0  0  0  0  0
   -2.5036   -0.9706   -3.1921 H   0  0  0  0  0  0  0  0  0  0  0  0
   -5.3686   -1.6867    2.1029 H   0  0  0  0  0  0  0  0  0  0  0  0
   -4.5145   -3.8687    1.2920 H   0  0  0  0  0  0  0  0  0  0  0  0
  1 14  1  0  0  0  0
  1 19  1  0  0  0  0
  2 20  2  0  0  0  0
  3  7  1  0  0  0  0
  3 12  1  0  0  0  0
  3 14  1  0  0  0  0
  4  5  1  0  0  0  0
  4 12  2  0  0  0  0
  5 14  2  0  0  0  0
  6 20  1  0  0  0  0
  6 21  1  0  0  0  0
  6 43  1  0  0  0  0
  7  8  1  0  0  0  0
  7 10  1  0  0  0  0
  7 11  1  0  0  0  0
  8  9  1  0  0  0  0
  8 29  1  0  0  0  0
  8 30  1  0  0  0  0
  9 13  1  0  0  0  0
  9 15  2  0  0  0  0
 10 31  1  0  0  0  0
 10 32  1  0  0  0  0
 10 33  1  0  0  0  0
 11 34  1  0  0  0  0
 11 35  1  0  0  0  0
 11 36  1  0  0  0  0
 12 13  1  0  0  0  0
 13 16  2  0  0  0  0
 15 17  1  0  0  0  0
 15 37  1  0  0  0  0
 16 18  1  0  0  0  0
 16 38  1  0  0  0  0
 17 18  2  0  0  0  0
 17 39  1  0  0  0  0
 18 40  1  0  0  0  0
 19 20  1  0  0  0  0
 19 41  1  0  0  0  0
 19 42  1  0  0  0  0
 21 22  1  0  0  0  0
 21 24  2  0  0  0  0
 22 23  1  0  0  0  0
 22 25  2  0  0  0  0
 23 26  1  0  0  0  0
 23 44  1  0  0  0  0
 23 45  1  0  0  0  0
 24 27  1  0  0  0  0
 24 46  1  0  0  0  0
 25 28  1  0  0  0  0
 25 47  1  0  0  0  0
 26 48  1  0  0  0  0
 26 49  1  0  0  0  0
 26 50  1  0  0  0  0
 27 28  2  0  0  0  0
 27 51  1  0  0  0  0
 28 52  1  0  0  0  0
M  END
> <PUBCHEM_COMPOUND_CID>
1140026

> <PUBCHEM_CONFORMER_RMSD>
0.8

> <PUBCHEM_CONFORMER_DIVERSEORDER>
4
11
199
80
181
75
133
176
84
34
40
130
171
81
71
61
195
3
175
70
10
32
47
162
108
206
37
180
58
50
149
69
87
13
96
179
122
190
6
107
174
22
68
159
200
9
44
157
53
139
29
78
202
1
92
124
137
177
41
204
85
142
196
8
43
100
27
170
18
66
28
60
16
160
83
152
183
182
63
126
187
188
82
141
111
173
99
194
140
116
148
167
114
147
191
21
46
189
156
131
48
113
76
197
102
17
65
105
30
54
127
169
144
117
205
25
115
24
52
42
12
62
158
86
59
101
20
138
198
172
5
193
98
143
56
151
103
136
35
145
201
132
38
184
192
146
15
203
72
57
45
155
165
79
7
88
164
90
120
104
14
109
128
119
185
178
118
2
33
67
51
110
36
93
26
134
166
89
121
154
91
39
64
73
112
23
55
186
168
95
31
74
19
123
94
49
153
150
106
161
125
77
163
129
135
97

> <PUBCHEM_MMFF94_PARTIAL_CHARGES>
34
1 -0.29
12 0.13
13 0.05
14 0.24
15 -0.15
16 -0.15
17 -0.15
18 -0.15
19 0.29
2 -0.57
20 0.57
21 0.12
22 -0.14
23 0.14
24 -0.15
25 -0.15
27 -0.15
28 -0.15
3 0.05
37 0.15
38 0.15
39 0.15
4 -0.34
40 0.15
43 0.37
46 0.15
47 0.15
5 -0.34
51 0.15
52 0.15
6 -0.55
7 0.26
8 0.14
9 -0.14

> <PUBCHEM_EFFECTIVE_ROTOR_COUNT>
6.4

> <PUBCHEM_PHARMACOPHORE_FEATURES>
10
1 2 acceptor
1 26 hydrophobe
1 6 donor
3 3 4 12 cation
3 3 5 14 cation
3 7 10 11 hydrophobe
5 3 4 5 12 14 rings
6 21 22 24 25 27 28 rings
6 3 7 8 9 12 13 rings
6 9 13 15 16 17 18 rings

> <PUBCHEM_HEAVY_ATOM_COUNT>
28

> <PUBCHEM_ATOM_DEF_STEREO_COUNT>
0

> <PUBCHEM_ATOM_UDEF_STEREO_COUNT>
0

> <PUBCHEM_BOND_DEF_STEREO_COUNT>
0

> <PUBCHEM_BOND_UDEF_STEREO_COUNT>
0

> <PUBCHEM_ISOTOPIC_ATOM_COUNT>
0

> <PUBCHEM_COMPONENT_COUNT>
1

> <PUBCHEM_CACTVS_TAUTO_COUNT>
2

> <PUBCHEM_CONFORMER_ID>
0011653A00000004

> <PUBCHEM_MMFF94_ENERGY>
78.5668

> <PUBCHEM_FEATURE_SELFOVERLAP>
53.341

> <PUBCHEM_SHAPE_FINGERPRINT>
10369192 42 17984963046685153408
11421498 54 17899147288400101517
11578080 2 18343298180443014568
12156800 1 16597376966637517507
12422481 6 18056224422025253131
12553582 1 18048875492363212973
12633257 1 16988564649267192439
13692114 37 18059857234967329445
13726171 33 17983050892067648564
14114206 34 17969203603919198439
14251757 5 18265335006119144312
150020 26 17845112725740732903
15484559 13 12983968126777068094
17809404 112 17829008282202441503
17909252 39 18262813959601702866
20291156 8 18333733545739919543
20775530 9 18410572920095040203
238 59 14346066559774349602
2818148 4 18190195635923738043
35225 105 17767371653039785213
508706 21 18269561550692390743
57091435 65 18122629615251512501
70251023 43 18041852842887537777

> <PUBCHEM_SHAPE_MULTIPOLES>
554.28
9.17
4.03
2.21
2.11
1.07
-0.34
-8.02
1.45
-2.39
-0.31
0.33
-0.11
0.36

> <PUBCHEM_SHAPE_SELFOVERLAP>
1188.639

> <PUBCHEM_SHAPE_VOLUME>
309.9

> <PUBCHEM_COORDINATE_TYPE>
2
5
10

$$$$
