91316
  -OEChem-02172602443D

 32 31  0     0  0  0  0  0  0999 V2000
   -1.9237    1.5371   -1.0440 O   0  0  0  0  0  0  0  0  0  0  0  0
   -2.5222    1.2579    1.1153 O   0  0  0  0  0  0  0  0  0  0  0  0
    2.4171    0.0859    0.0329 C   0  0  0  0  0  0  0  0  0  0  0  0
    0.9249    0.0615    0.4674 C   0  0  0  0  0  0  0  0  0  0  0  0
   -0.0346   -0.6703   -0.4883 C   0  0  0  0  0  0  0  0  0  0  0  0
   -1.5261   -0.6431   -0.0569 C   0  0  0  0  0  0  0  0  0  0  0  0
    2.9997   -1.3345   -0.0465 C   0  0  0  0  0  0  0  0  0  0  0  0
    3.2098    0.8812    1.0896 C   0  0  0  0  0  0  0  0  0  0  0  0
    2.5904    0.7824   -1.3273 C   0  0  0  0  0  0  0  0  0  0  0  0
   -1.7143   -1.3814    1.2833 C   0  0  0  0  0  0  0  0  0  0  0  0
   -2.3792   -1.3721   -1.1124 C   0  0  0  0  0  0  0  0  0  0  0  0
   -2.0418    0.7955    0.0868 C   0  0  0  0  0  0  0  0  0  0  0  0
    0.8659   -0.4033    1.4590 H   0  0  0  0  0  0  0  0  0  0  0  0
    0.5825    1.0967    0.5918 H   0  0  0  0  0  0  0  0  0  0  0  0
    0.2810   -1.7154   -0.5913 H   0  0  0  0  0  0  0  0  0  0  0  0
    0.0447   -0.2215   -1.4852 H   0  0  0  0  0  0  0  0  0  0  0  0
    2.8532   -1.8747    0.8954 H   0  0  0  0  0  0  0  0  0  0  0  0
    4.0764   -1.3078   -0.2500 H   0  0  0  0  0  0  0  0  0  0  0  0
    2.5350   -1.9199   -0.8465 H   0  0  0  0  0  0  0  0  0  0  0  0
    3.1262    0.4171    2.0788 H   0  0  0  0  0  0  0  0  0  0  0  0
    4.2747    0.9299    0.8350 H   0  0  0  0  0  0  0  0  0  0  0  0
    2.8406    1.9099    1.1703 H   0  0  0  0  0  0  0  0  0  0  0  0
    2.1428    0.2036   -2.1416 H   0  0  0  0  0  0  0  0  0  0  0  0
    3.6515    0.9104   -1.5711 H   0  0  0  0  0  0  0  0  0  0  0  0
    2.1285    1.7759   -1.3241 H   0  0  0  0  0  0  0  0  0  0  0  0
   -1.2301   -0.8562    2.1134 H   0  0  0  0  0  0  0  0  0  0  0  0
   -2.7768   -1.4648    1.5417 H   0  0  0  0  0  0  0  0  0  0  0  0
   -1.3025   -2.3958    1.2383 H   0  0  0  0  0  0  0  0  0  0  0  0
   -3.4448   -1.3282   -0.8590 H   0  0  0  0  0  0  0  0  0  0  0  0
   -2.2644   -0.9159   -2.1022 H   0  0  0  0  0  0  0  0  0  0  0  0
   -2.0931   -2.4263   -1.1962 H   0  0  0  0  0  0  0  0  0  0  0  0
   -2.2611    2.4497   -0.9197 H   0  0  0  0  0  0  0  0  0  0  0  0
  1 12  1  0  0  0  0
  1 32  1  0  0  0  0
  2 12  2  0  0  0  0
  3  4  1  0  0  0  0
  3  7  1  0  0  0  0
  3  8  1  0  0  0  0
  3  9  1  0  0  0  0
  4  5  1  0  0  0  0
  4 13  1  0  0  0  0
  4 14  1  0  0  0  0
  5  6  1  0  0  0  0
  5 15  1  0  0  0  0
  5 16  1  0  0  0  0
  6 10  1  0  0  0  0
  6 11  1  0  0  0  0
  6 12  1  0  0  0  0
  7 17  1  0  0  0  0
  7 18  1  0  0  0  0
  7 19  1  0  0  0  0
  8 20  1  0  0  0  0
  8 21  1  0  0  0  0
  8 22  1  0  0  0  0
  9 23  1  0  0  0  0
  9 24  1  0  0  0  0
  9 25  1  0  0  0  0
 10 26  1  0  0  0  0
 10 27  1  0  0  0  0
 10 28  1  0  0  0  0
 11 29  1  0  0  0  0
 11 30  1  0  0  0  0
 11 31  1  0  0  0  0
M  END
> <PUBCHEM_COMPOUND_CID>
91316

> <PUBCHEM_CONFORMER_RMSD>
0.6

> <PUBCHEM_CONFORMER_DIVERSEORDER>
1
3
6
5
2
4

> <PUBCHEM_MMFF94_PARTIAL_CHARGES>
5
1 -0.65
12 0.66
2 -0.57
32 0.5
6 0.06

> <PUBCHEM_EFFECTIVE_ROTOR_COUNT>
4

> <PUBCHEM_PHARMACOPHORE_FEATURES>
6
1 1 acceptor
1 2 acceptor
3 1 2 12 anion
3 6 10 11 hydrophobe
4 3 4 5 6 hydrophobe
4 3 7 8 9 hydrophobe

> <PUBCHEM_HEAVY_ATOM_COUNT>
12

> <PUBCHEM_ATOM_DEF_STEREO_COUNT>
0

> <PUBCHEM_ATOM_UDEF_STEREO_COUNT>
0

> <PUBCHEM_BOND_DEF_STEREO_COUNT>
0

> <PUBCHEM_BOND_UDEF_STEREO_COUNT>
0

> <PUBCHEM_ISOTOPIC_ATOM_COUNT>
0

> <PUBCHEM_COMPONENT_COUNT>
1

> <PUBCHEM_CACTVS_TAUTO_COUNT>
1

> <PUBCHEM_CONFORMER_ID>
000164B400000001

> <PUBCHEM_MMFF94_ENERGY>
29.0011

> <PUBCHEM_FEATURE_SELFOVERLAP>
30.564

> <PUBCHEM_SHAPE_FINGERPRINT>
10922523 26 18336830771406458070
12932764 1 18059585719017646726
13024252 1 17748821934613193343
13296908 3 17918276463314975662
13764800 53 18272385164944727561
14144814 61 17967812764849482594
15775835 57 18272091595350433096
16945 1 18195814187306992130
19837323 101 17632016343254401145
19973954 147 18113624512141148572
20653085 51 16486704554159723649
21028194 46 18339080380602082429
21069387 34 16700598001392852414
21524375 3 18052544266344305457
23552423 10 18333449824632839838
23557571 272 17774722081713839944
3248919 1 18113615724706788426
369184 2 17917991693687015779
5084963 1 18408035208508072575
74978 22 17703796885989566822
8030462 33 18410576223109208262

> <PUBCHEM_SHAPE_MULTIPOLES>
235.22
5.41
1.58
1.3
2.52
0
0.01
-0.35
-0.2
-0.65
0.02
-0.12
-0.09
-0.05

> <PUBCHEM_SHAPE_SELFOVERLAP>
444.093

> <PUBCHEM_SHAPE_VOLUME>
147.9

> <PUBCHEM_COORDINATE_TYPE>
2
5
10

$$$$
