68235
  -OEChem-02172602433D

 45 47  0     0  0  0  0  0  0999 V2000
    4.2185    2.4744    0.3425 O   0  0  0  0  0  0  0  0  0  0  0  0
   -5.1012   -2.0245   -0.2094 O   0  0  0  0  0  0  0  0  0  0  0  0
   -6.4438    0.4092   -0.2450 O   0  0  0  0  0  0  0  0  0  0  0  0
    1.9841   -0.9495   -0.3501 N   0  0  0  0  0  0  0  0  0  0  0  0
   -0.0432    0.3558   -0.5559 C   0  0  0  0  0  0  0  0  0  0  0  0
   -0.8877    0.2538    0.7293 C   0  0  0  0  0  0  0  0  0  0  0  0
    1.4289    0.2838   -0.3228 C   0  0  0  0  0  0  0  0  0  0  0  0
   -2.3739    0.2916    0.4691 C   0  0  0  0  0  0  0  0  0  0  0  0
    4.1188    0.0754    0.0968 C   0  0  0  0  0  0  0  0  0  0  0  0
    2.1370    1.4465   -0.0959 C   0  0  0  0  0  0  0  0  0  0  0  0
    3.3103   -1.0553   -0.1436 C   0  0  0  0  0  0  0  0  0  0  0  0
    3.5034    1.3343    0.1168 C   0  0  0  0  0  0  0  0  0  0  0  0
   -3.0556   -0.8947    0.2482 C   0  0  0  0  0  0  0  0  0  0  0  0
   -3.0302    1.5123    0.4545 C   0  0  0  0  0  0  0  0  0  0  0  0
   -4.4288   -0.8595    0.0068 C   0  0  0  0  0  0  0  0  0  0  0  0
   -4.4034    1.5476    0.2131 C   0  0  0  0  0  0  0  0  0  0  0  0
   -5.1028    0.3616   -0.0108 C   0  0  0  0  0  0  0  0  0  0  0  0
    5.5001   -0.0719    0.3086 C   0  0  0  0  0  0  0  0  0  0  0  0
    3.9223   -2.3056   -0.1632 C   0  0  0  0  0  0  0  0  0  0  0  0
    6.0858   -1.3343    0.2834 C   0  0  0  0  0  0  0  0  0  0  0  0
    5.2956   -2.4524    0.0473 C   0  0  0  0  0  0  0  0  0  0  0  0
    4.7606    3.1332   -0.7990 C   0  0  0  0  0  0  0  0  0  0  0  0
   -4.3384   -3.2290   -0.1747 C   0  0  0  0  0  0  0  0  0  0  0  0
   -7.0564    1.6972   -0.2460 C   0  0  0  0  0  0  0  0  0  0  0  0
   -0.2894    1.2821   -1.0920 H   0  0  0  0  0  0  0  0  0  0  0  0
   -0.3281   -0.4557   -1.2394 H   0  0  0  0  0  0  0  0  0  0  0  0
   -0.6181    1.0674    1.4164 H   0  0  0  0  0  0  0  0  0  0  0  0
   -0.6344   -0.6691    1.2686 H   0  0  0  0  0  0  0  0  0  0  0  0
    1.6486    2.4154   -0.0802 H   0  0  0  0  0  0  0  0  0  0  0  0
   -2.4759   -1.8109    0.2715 H   0  0  0  0  0  0  0  0  0  0  0  0
   -2.4923    2.4406    0.6257 H   0  0  0  0  0  0  0  0  0  0  0  0
   -4.8602    2.5313    0.2137 H   0  0  0  0  0  0  0  0  0  0  0  0
    6.1386    0.7869    0.5012 H   0  0  0  0  0  0  0  0  0  0  0  0
    3.3252   -3.1972   -0.3459 H   0  0  0  0  0  0  0  0  0  0  0  0
    7.1532   -1.4446    0.4488 H   0  0  0  0  0  0  0  0  0  0  0  0
    5.7442   -3.4414    0.0263 H   0  0  0  0  0  0  0  0  0  0  0  0
    5.3621    3.9783   -0.4530 H   0  0  0  0  0  0  0  0  0  0  0  0
    3.9557    3.5152   -1.4349 H   0  0  0  0  0  0  0  0  0  0  0  0
    5.4034    2.4603   -1.3751 H   0  0  0  0  0  0  0  0  0  0  0  0
   -3.9033   -3.4032    0.8154 H   0  0  0  0  0  0  0  0  0  0  0  0
   -3.5872   -3.2544   -0.9715 H   0  0  0  0  0  0  0  0  0  0  0  0
   -5.0318   -4.0547   -0.3661 H   0  0  0  0  0  0  0  0  0  0  0  0
   -6.6665    2.3290   -1.0515 H   0  0  0  0  0  0  0  0  0  0  0  0
   -6.9838    2.1795    0.7347 H   0  0  0  0  0  0  0  0  0  0  0  0
   -8.1222    1.5470   -0.4479 H   0  0  0  0  0  0  0  0  0  0  0  0
  1 12  1  0  0  0  0
  1 22  1  0  0  0  0
  2 15  1  0  0  0  0
  2 23  1  0  0  0  0
  3 17  1  0  0  0  0
  3 24  1  0  0  0  0
  4  7  2  0  0  0  0
  4 11  1  0  0  0  0
  5  6  1  0  0  0  0
  5  7  1  0  0  0  0
  5 25  1  0  0  0  0
  5 26  1  0  0  0  0
  6  8  1  0  0  0  0
  6 27  1  0  0  0  0
  6 28  1  0  0  0  0
  7 10  1  0  0  0  0
  8 13  2  0  0  0  0
  8 14  1  0  0  0  0
  9 11  1  0  0  0  0
  9 12  1  0  0  0  0
  9 18  2  0  0  0  0
 10 12  2  0  0  0  0
 10 29  1  0  0  0  0
 11 19  2  0  0  0  0
 13 15  1  0  0  0  0
 13 30  1  0  0  0  0
 14 16  2  0  0  0  0
 14 31  1  0  0  0  0
 15 17  2  0  0  0  0
 16 17  1  0  0  0  0
 16 32  1  0  0  0  0
 18 20  1  0  0  0  0
 18 33  1  0  0  0  0
 19 21  1  0  0  0  0
 19 34  1  0  0  0  0
 20 21  2  0  0  0  0
 20 35  1  0  0  0  0
 21 36  1  0  0  0  0
 22 37  1  0  0  0  0
 22 38  1  0  0  0  0
 22 39  1  0  0  0  0
 23 40  1  0  0  0  0
 23 41  1  0  0  0  0
 23 42  1  0  0  0  0
 24 43  1  0  0  0  0
 24 44  1  0  0  0  0
 24 45  1  0  0  0  0
M  END
> <PUBCHEM_COMPOUND_CID>
68235

> <PUBCHEM_CONFORMER_RMSD>
0.8

> <PUBCHEM_CONFORMER_DIVERSEORDER>
43
15
1
63
32
55
12
34
38
3
44
57
23
49
10
9
28
47
5
37
64
11
20
4
29
13
67
27
14
7
53
35
58
36
2
61
56
40
66
8
65
48
45
17
30
6
39
24
62
31
33
25
51
52
60
19
18
41
26
16
59
22
46
21
50
42
54

> <PUBCHEM_MMFF94_PARTIAL_CHARGES>
31
1 -0.36
10 -0.15
11 0.31
12 0.08
13 -0.15
14 -0.15
15 0.08
16 -0.15
17 0.08
18 -0.15
19 -0.15
2 -0.36
20 -0.15
21 -0.15
22 0.28
23 0.28
24 0.28
29 0.15
3 -0.36
30 0.15
31 0.15
32 0.15
33 0.15
34 0.15
35 0.15
36 0.15
4 -0.62
5 0.14
6 0.14
7 0.17
8 -0.14

> <PUBCHEM_EFFECTIVE_ROTOR_COUNT>
6

> <PUBCHEM_PHARMACOPHORE_FEATURES>
7
1 1 acceptor
1 2 acceptor
1 3 acceptor
1 4 acceptor
6 4 7 9 10 11 12 rings
6 8 13 14 15 16 17 rings
6 9 11 18 19 20 21 rings

> <PUBCHEM_HEAVY_ATOM_COUNT>
24

> <PUBCHEM_ATOM_DEF_STEREO_COUNT>
0

> <PUBCHEM_ATOM_UDEF_STEREO_COUNT>
0

> <PUBCHEM_BOND_DEF_STEREO_COUNT>
0

> <PUBCHEM_BOND_UDEF_STEREO_COUNT>
0

> <PUBCHEM_ISOTOPIC_ATOM_COUNT>
0

> <PUBCHEM_COMPONENT_COUNT>
1

> <PUBCHEM_CACTVS_TAUTO_COUNT>
2

> <PUBCHEM_CONFORMER_ID>
00010A8B0000002B

> <PUBCHEM_MMFF94_ENERGY>
97.3626

> <PUBCHEM_FEATURE_SELFOVERLAP>
35.559

> <PUBCHEM_SHAPE_FINGERPRINT>
10411042 1 18049722920251464394
10595046 47 18339926016729023993
10835480 77 18411131480903199113
11315181 36 17418091014716320705
11405975 8 18412550885699524281
11719270 70 17917427596998757294
11796584 16 18342458131920772867
12107183 9 17908710527010912424
12236239 1 17989485204100473376
12616971 3 17989199356662595484
13167823 11 18412261744127302467
13533116 47 18413107260205942160
14341114 176 18412549794672225257
14790565 3 17614853241940022132
15064986 266 18262526995968452771
15183329 4 18410295774376298433
15196674 1 18411138069198012059
15250474 111 18272079547783351062
15361156 5 18040446498295047012
15788980 27 18335424564553458315
17492 89 18338800121101720715
17844677 252 18410863139625067857
17857418 61 18412543197618581675
19958102 18 18261383447888094999
20028762 73 18343299233010902774
20157964 124 18411700980502086944
21065198 48 18341899614257153633
21065198 57 18410576149867930224
21859007 373 17896874349358921653
220451 1 18341061803750607457
23081809 10 18060137652680764077
23559900 14 18341604932635848849
239999 70 18343025467615954942
29717793 49 18272934894941260836
3004659 81 18408602543939594976
3411729 13 18262235634145909776
4015057 19 18341321275984809953
4073 2 18187088398615112810
4214541 1 18411700963485520721
439807 62 18270398416897059351
504579 68 18413114969645943236
5104073 3 18272375290804176531
559249 180 18409728444390158971
59755656 215 17822853074486825163
59755656 520 16805325483791320275
67856867 119 18412544340422819352
7495541 125 17632573889822414402
9709674 26 18262244429257574947
9971528 1 17894633668856706812

> <PUBCHEM_SHAPE_MULTIPOLES>
471.32
18.19
3.05
0.72
10.8
0.49
0
0.79
-0.48
-1.56
-0.39
-0.09
-0.1
-0.59

> <PUBCHEM_SHAPE_SELFOVERLAP>
1019.243

> <PUBCHEM_SHAPE_VOLUME>
259.2

> <PUBCHEM_COORDINATE_TYPE>
2
5
10

$$$$
