98597
  -OEChem-02172602433D

 35 34  0     0  0  0  0  0  0999 V2000
   -4.2007   -1.3690    0.0083 O   0  0  0  0  0  0  0  0  0  0  0  0
   -5.2483    0.7051   -0.0496 N   0  0  0  0  0  0  0  0  0  0  0  0
   -6.5163    0.1611   -0.0621 N   0  0  0  0  0  0  0  0  0  0  0  0
    2.2615    0.4505    0.0636 C   0  0  0  0  0  0  0  0  0  0  0  0
    0.9684   -0.3674    0.0563 C   0  0  0  0  0  0  0  0  0  0  0  0
    3.4924   -0.4592    0.0166 C   0  0  0  0  0  0  0  0  0  0  0  0
   -0.2980    0.4941    0.0706 C   0  0  0  0  0  0  0  0  0  0  0  0
    4.7854    0.3592   -0.0079 C   0  0  0  0  0  0  0  0  0  0  0  0
   -1.6245   -0.2706    0.0417 C   0  0  0  0  0  0  0  0  0  0  0  0
    6.0467   -0.5034   -0.0865 C   0  0  0  0  0  0  0  0  0  0  0  0
   -2.8501    0.6400    0.0024 C   0  0  0  0  0  0  0  0  0  0  0  0
    7.3364    0.3012   -0.0393 C   0  0  0  0  0  0  0  0  0  0  0  0
   -4.1529   -0.1417   -0.0140 C   0  0  0  0  0  0  0  0  0  0  0  0
    2.2701    1.1267   -0.7998 H   0  0  0  0  0  0  0  0  0  0  0  0
    2.2962    1.0746    0.9646 H   0  0  0  0  0  0  0  0  0  0  0  0
    0.9551   -1.0348    0.9267 H   0  0  0  0  0  0  0  0  0  0  0  0
    0.9499   -1.0083   -0.8339 H   0  0  0  0  0  0  0  0  0  0  0  0
    3.4471   -1.0950   -0.8758 H   0  0  0  0  0  0  0  0  0  0  0  0
    3.4947   -1.1241    0.8886 H   0  0  0  0  0  0  0  0  0  0  0  0
   -0.2797    1.1315    0.9637 H   0  0  0  0  0  0  0  0  0  0  0  0
   -0.2673    1.1715   -0.7925 H   0  0  0  0  0  0  0  0  0  0  0  0
    4.7679    1.0436   -0.8651 H   0  0  0  0  0  0  0  0  0  0  0  0
    4.8324    0.9826    0.8937 H   0  0  0  0  0  0  0  0  0  0  0  0
   -1.6794   -0.9227    0.9225 H   0  0  0  0  0  0  0  0  0  0  0  0
   -1.6364   -0.9325   -0.8335 H   0  0  0  0  0  0  0  0  0  0  0  0
    6.0273   -1.0914   -1.0117 H   0  0  0  0  0  0  0  0  0  0  0  0
    6.0492   -1.2190    0.7445 H   0  0  0  0  0  0  0  0  0  0  0  0
   -2.8166    1.2723   -0.8926 H   0  0  0  0  0  0  0  0  0  0  0  0
   -2.8544    1.2969    0.8803 H   0  0  0  0  0  0  0  0  0  0  0  0
    7.4079    0.8699    0.8932 H   0  0  0  0  0  0  0  0  0  0  0  0
    8.2029   -0.3646   -0.1002 H   0  0  0  0  0  0  0  0  0  0  0  0
    7.3872    1.0053   -0.8758 H   0  0  0  0  0  0  0  0  0  0  0  0
   -5.1589    1.7162   -0.0656 H   0  0  0  0  0  0  0  0  0  0  0  0
   -7.0141    0.5530    0.7363 H   0  0  0  0  0  0  0  0  0  0  0  0
   -6.9854    0.5235   -0.8913 H   0  0  0  0  0  0  0  0  0  0  0  0
  1 13  2  0  0  0  0
  2  3  1  0  0  0  0
  2 13  1  0  0  0  0
  2 33  1  0  0  0  0
  3 34  1  0  0  0  0
  3 35  1  0  0  0  0
  4  5  1  0  0  0  0
  4  6  1  0  0  0  0
  4 14  1  0  0  0  0
  4 15  1  0  0  0  0
  5  7  1  0  0  0  0
  5 16  1  0  0  0  0
  5 17  1  0  0  0  0
  6  8  1  0  0  0  0
  6 18  1  0  0  0  0
  6 19  1  0  0  0  0
  7  9  1  0  0  0  0
  7 20  1  0  0  0  0
  7 21  1  0  0  0  0
  8 10  1  0  0  0  0
  8 22  1  0  0  0  0
  8 23  1  0  0  0  0
  9 11  1  0  0  0  0
  9 24  1  0  0  0  0
  9 25  1  0  0  0  0
 10 12  1  0  0  0  0
 10 26  1  0  0  0  0
 10 27  1  0  0  0  0
 11 13  1  0  0  0  0
 11 28  1  0  0  0  0
 11 29  1  0  0  0  0
 12 30  1  0  0  0  0
 12 31  1  0  0  0  0
 12 32  1  0  0  0  0
M  END
> <PUBCHEM_COMPOUND_CID>
98597

> <PUBCHEM_CONFORMER_RMSD>
0.8

> <PUBCHEM_CONFORMER_DIVERSEORDER>
1
305
72
312
64
172
218
314
79
62
14
102
320
177
176
212
122
309
55
148
282
129
315
61
2
258
76
321
57
70
22
141
8
83
110
38
304
35
292
264
37
190
113
104
290
271
189
12
167
15
88
265
48
44
94
233
222
7
66
41
303
51
310
132
267
21
255
235
170
65
80
256
296
25
67
17
31
308
273
125
90
223
59
248
165
302
249
286
152
18
154
322
63
213
3
313
301
33
284
153
179
137
201
191
116
268
10
184
71
27
192
87
300
241
36
316
13
159
287
19
231
28
114
299
214
93
208
157
283
171
270
103
97
52
95
24
42
105
84
75
278
140
298
120
86
210
317
323
318
130
11
29
119
124
263
118
32
4
294
101
23
259
138
230
99
74
108
254
288
185
117
194
280
293
166
204
136
39
239
285
58
297
53
20
244
81
69
144
319
85
279
147
77
281
98
274
217
123
197
150
269
60
106
247
324
128
261
198
131
202
143
156
221
78
307
30
135
187
246
47
163
43
92
16
168
9
252
260
151
245
178
196
238
240
276
45
186
211
6
203
73
158
311
142
173
82
195
253
266
111
34
306
134
91
234
216
291
228
219
220
200
226
169
250
209
325
109
49
56
54
89
5
121
100
199
46
188
40
236
26
224
115
50
155
146
149
242
227
164
180
181
96
215
275
112
206
127
160
289
229
207
174
162
183
182
175
277
145
133
295
107
126
68
232
225
139
193
257
161
251
272
205
262
237
243

> <PUBCHEM_MMFF94_PARTIAL_CHARGES>
8
1 -0.57
11 0.06
13 0.57
2 -0.42
3 -0.73
33 0.37
34 0.36
35 0.36

> <PUBCHEM_EFFECTIVE_ROTOR_COUNT>
9

> <PUBCHEM_PHARMACOPHORE_FEATURES>
4
1 1 acceptor
1 12 hydrophobe
1 2 donor
1 3 donor

> <PUBCHEM_HEAVY_ATOM_COUNT>
13

> <PUBCHEM_ATOM_DEF_STEREO_COUNT>
0

> <PUBCHEM_ATOM_UDEF_STEREO_COUNT>
0

> <PUBCHEM_BOND_DEF_STEREO_COUNT>
0

> <PUBCHEM_BOND_UDEF_STEREO_COUNT>
0

> <PUBCHEM_ISOTOPIC_ATOM_COUNT>
0

> <PUBCHEM_COMPONENT_COUNT>
1

> <PUBCHEM_CACTVS_TAUTO_COUNT>
2

> <PUBCHEM_CONFORMER_ID>
0001812500000001

> <PUBCHEM_MMFF94_ENERGY>
3.4463

> <PUBCHEM_FEATURE_SELFOVERLAP>
21.809

> <PUBCHEM_SHAPE_FINGERPRINT>
10968037 39 18411699885686008839
11315181 36 17988927790702762361
12091667 2 17313104150932487309
13533116 47 16950552256800995592
14123238 8 18131351903914233038
1420 363 17917997178771560014
14251718 22 18408323294003804746
14251764 46 15791731906043010033
17834072 33 18409450319202673996
17834076 25 16081088177606182448
187816 3 16226048885839685616
20621476 8 18337675208968310269
20645477 70 18269275673722575254
20767249 213 18187366536765945012
220451 1 17312820476806076962
23035841 295 18334294262252435227
23402539 116 18409726278992990311
23521765 1 18341895190356267332
23559900 14 18341888640584103304
33684 2 18410291402083734130
42788 4 18410855460175751496
4463277 17 18410292515002815020
57583515 80 18060702784160716569
8209 1 18411700985176602516

> <PUBCHEM_SHAPE_MULTIPOLES>
251.7
18.91
0.88
0.6
7.41
0.11
0
-0.36
0.67
-0.39
0
0.11
0
0.03

> <PUBCHEM_SHAPE_SELFOVERLAP>
454.835

> <PUBCHEM_SHAPE_VOLUME>
161.5

> <PUBCHEM_COORDINATE_TYPE>
2
5
10

$$$$
