75142
  -OEChem-02172602263D

 26 26  0     0  0  0  0  0  0999 V2000
   -2.7051    1.5914   -0.0898 O   0  0  0  0  0  0  0  0  0  0  0  0
    2.4395   -1.2502   -0.6917 O   0  0  0  0  0  0  0  0  0  0  0  0
    4.6441    0.2102   -0.2419 O   0  0  0  0  0  0  0  0  0  0  0  0
   -3.8174   -0.9342    0.2374 O   0  0  0  0  0  0  0  0  0  0  0  0
    0.2983   -0.4925   -0.0855 C   0  0  0  0  0  0  0  0  0  0  0  0
    2.4202    0.9492    0.3012 C   0  0  0  0  0  0  0  0  0  0  0  0
    1.7405   -0.3424   -0.1967 C   0  0  0  0  0  0  0  0  0  0  0  0
   -0.5264    0.6311   -0.1419 C   0  0  0  0  0  0  0  0  0  0  0  0
   -0.2603   -1.7601    0.0792 C   0  0  0  0  0  0  0  0  0  0  0  0
   -1.9097    0.4870   -0.0336 C   0  0  0  0  0  0  0  0  0  0  0  0
    3.8438    0.7454    0.8045 C   0  0  0  0  0  0  0  0  0  0  0  0
   -2.4681   -0.7807    0.1310 C   0  0  0  0  0  0  0  0  0  0  0  0
   -1.6434   -1.9042    0.1875 C   0  0  0  0  0  0  0  0  0  0  0  0
   -2.0559    2.8499   -0.2596 C   0  0  0  0  0  0  0  0  0  0  0  0
    2.4254    1.6464   -0.5447 H   0  0  0  0  0  0  0  0  0  0  0  0
    1.8303    1.3814    1.1165 H   0  0  0  0  0  0  0  0  0  0  0  0
   -0.0536    1.5945   -0.2919 H   0  0  0  0  0  0  0  0  0  0  0  0
    0.3664   -2.6468    0.1300 H   0  0  0  0  0  0  0  0  0  0  0  0
    4.2762    1.6975    1.1263 H   0  0  0  0  0  0  0  0  0  0  0  0
    3.8593    0.0411    1.6424 H   0  0  0  0  0  0  0  0  0  0  0  0
   -2.0652   -2.8973    0.3165 H   0  0  0  0  0  0  0  0  0  0  0  0
    5.5407    0.0945    0.1161 H   0  0  0  0  0  0  0  0  0  0  0  0
   -1.5344    2.9091   -1.2211 H   0  0  0  0  0  0  0  0  0  0  0  0
   -1.4020    3.0857    0.5870 H   0  0  0  0  0  0  0  0  0  0  0  0
   -2.8388    3.6154   -0.2771 H   0  0  0  0  0  0  0  0  0  0  0  0
   -4.0211   -1.8791    0.3456 H   0  0  0  0  0  0  0  0  0  0  0  0
  1 10  1  0  0  0  0
  1 14  1  0  0  0  0
  2  7  2  0  0  0  0
  3 11  1  0  0  0  0
  3 22  1  0  0  0  0
  4 12  1  0  0  0  0
  4 26  1  0  0  0  0
  5  7  1  0  0  0  0
  5  8  2  0  0  0  0
  5  9  1  0  0  0  0
  6  7  1  0  0  0  0
  6 11  1  0  0  0  0
  6 15  1  0  0  0  0
  6 16  1  0  0  0  0
  8 10  1  0  0  0  0
  8 17  1  0  0  0  0
  9 13  2  0  0  0  0
  9 18  1  0  0  0  0
 10 12  2  0  0  0  0
 11 19  1  0  0  0  0
 11 20  1  0  0  0  0
 12 13  1  0  0  0  0
 13 21  1  0  0  0  0
 14 23  1  0  0  0  0
 14 24  1  0  0  0  0
 14 25  1  0  0  0  0
M  END
> <PUBCHEM_COMPOUND_CID>
75142

> <PUBCHEM_CONFORMER_RMSD>
0.6

> <PUBCHEM_CONFORMER_DIVERSEORDER>
38
24
41
21
33
4
52
47
44
14
18
49
17
36
5
1
40
51
15
42
28
20
12
46
9
22
50
30
45
39
16
35
43
2
48
13
23
3
27
6
37
34
8
10
26
11
32
7
19
29
31
25

> <PUBCHEM_MMFF94_PARTIAL_CHARGES>
19
1 -0.36
10 0.08
11 0.28
12 0.08
13 -0.15
14 0.28
17 0.15
18 0.15
2 -0.57
21 0.15
22 0.4
26 0.45
3 -0.68
4 -0.53
5 0.09
6 0.06
7 0.42
8 -0.15
9 -0.15

> <PUBCHEM_EFFECTIVE_ROTOR_COUNT>
4

> <PUBCHEM_PHARMACOPHORE_FEATURES>
6
1 1 acceptor
1 2 acceptor
1 3 acceptor
1 3 donor
1 4 donor
6 5 8 9 10 12 13 rings

> <PUBCHEM_HEAVY_ATOM_COUNT>
14

> <PUBCHEM_ATOM_DEF_STEREO_COUNT>
0

> <PUBCHEM_ATOM_UDEF_STEREO_COUNT>
0

> <PUBCHEM_BOND_DEF_STEREO_COUNT>
0

> <PUBCHEM_BOND_UDEF_STEREO_COUNT>
0

> <PUBCHEM_ISOTOPIC_ATOM_COUNT>
0

> <PUBCHEM_COMPONENT_COUNT>
1

> <PUBCHEM_CACTVS_TAUTO_COUNT>
9

> <PUBCHEM_CONFORMER_ID>
0001258600000026

> <PUBCHEM_MMFF94_ENERGY>
43.0151

> <PUBCHEM_FEATURE_SELFOVERLAP>
30.454

> <PUBCHEM_SHAPE_FINGERPRINT>
10608611 8 18342172276324989352
11132069 177 18200028580884507658
12251169 10 18262230136017519456
13024252 1 11314297356942288791
14325111 11 18411136900945620142
14614273 12 18041831823301857869
15042514 8 18265053724400943315
15219456 202 18272935990347864302
15775835 57 18187927227239599144
16945 1 18335711580127852799
1741750 31 18268426824279601265
17802600 8 18342171210946272696
17846911 113 18410852204822643379
18186145 218 18058458616493366600
19049666 15 18270123405228430990
193761 8 13798322345897466051
20510252 161 18413390917036406969
20645464 45 18272655657547611150
20645477 56 18410296865314166421
20645477 70 17060351699837680798
20871998 184 18271248325914645287
21501502 16 18337103445721008962
21524375 3 17902512584713747477
22182937 141 18128543673771092345
2306618 200 18272939331579083569
23402539 116 18340758351637525871
23557571 272 18272098209436642821
23559900 14 18127130763386772846
2748010 2 18265904566206595375
305870 269 18188766124546899162
43471831 8 18187640280327399778
474 4 16517385516132847428
6333449 129 18410853252720836453
69090 78 18202280342123037279
7364860 26 18268990886930518210
81228 2 18334586754157785761
90316 7 17677594437447558132

> <PUBCHEM_SHAPE_MULTIPOLES>
264.64
6.51
2.26
0.69
5.65
1.04
0.02
1.07
0.52
-1.99
-0.11
0.25
0
0.57

> <PUBCHEM_SHAPE_SELFOVERLAP>
546.242

> <PUBCHEM_SHAPE_VOLUME>
152

> <PUBCHEM_COORDINATE_TYPE>
2
5
10

$$$$
