91873
  -OEChem-02172602483D

 40 40  0     0  0  0  0  0  0999 V2000
   -0.2066   -0.7425   -1.7666 O   0  0  0  0  0  0  0  0  0  0  0  0
    2.5616    0.2869    0.2618 O   0  0  0  0  0  0  0  0  0  0  0  0
    3.9786   -1.4733   -0.1716 O   0  0  0  0  0  0  0  0  0  0  0  0
    0.4253   -1.1862    0.4295 N   0  0  0  0  0  0  0  0  0  0  0  0
   -1.6077    0.0253    0.0177 C   0  0  0  0  0  0  0  0  0  0  0  0
   -1.1481    1.1966    0.9087 C   0  0  0  0  0  0  0  0  0  0  0  0
   -2.4259    0.6654   -1.1154 C   0  0  0  0  0  0  0  0  0  0  0  0
   -2.4255   -1.0073    0.7904 C   0  0  0  0  0  0  0  0  0  0  0  0
   -1.6987    2.4645    0.2581 C   0  0  0  0  0  0  0  0  0  0  0  0
   -1.9013    2.0920   -1.1992 C   0  0  0  0  0  0  0  0  0  0  0  0
   -0.3945   -0.6627   -0.5554 C   0  0  0  0  0  0  0  0  0  0  0  0
   -3.6524   -0.3554    1.4239 C   0  0  0  0  0  0  0  0  0  0  0  0
   -2.8405   -2.1573   -0.1247 C   0  0  0  0  0  0  0  0  0  0  0  0
    1.6406   -1.9135    0.1425 C   0  0  0  0  0  0  0  0  0  0  0  0
    2.8597   -1.0257    0.0574 C   0  0  0  0  0  0  0  0  0  0  0  0
    3.6679    1.1930    0.1977 C   0  0  0  0  0  0  0  0  0  0  0  0
    3.1676    2.6002    0.4452 C   0  0  0  0  0  0  0  0  0  0  0  0
   -0.0548    1.2916    0.9211 H   0  0  0  0  0  0  0  0  0  0  0  0
   -1.4417    1.1260    1.9596 H   0  0  0  0  0  0  0  0  0  0  0  0
   -3.4957    0.7254   -0.9005 H   0  0  0  0  0  0  0  0  0  0  0  0
   -2.3443    0.1636   -2.0850 H   0  0  0  0  0  0  0  0  0  0  0  0
   -1.8396   -1.4329    1.6144 H   0  0  0  0  0  0  0  0  0  0  0  0
   -1.0260    3.3188    0.3789 H   0  0  0  0  0  0  0  0  0  0  0  0
   -2.6608    2.7265    0.7142 H   0  0  0  0  0  0  0  0  0  0  0  0
   -2.6004    2.7636   -1.7057 H   0  0  0  0  0  0  0  0  0  0  0  0
   -0.9468    2.1202   -1.7375 H   0  0  0  0  0  0  0  0  0  0  0  0
   -4.4323   -0.1055    0.6991 H   0  0  0  0  0  0  0  0  0  0  0  0
   -4.1160   -1.0703    2.1158 H   0  0  0  0  0  0  0  0  0  0  0  0
   -3.4343    0.5359    2.0153 H   0  0  0  0  0  0  0  0  0  0  0  0
   -3.4492   -1.8206   -0.9700 H   0  0  0  0  0  0  0  0  0  0  0  0
   -3.4445   -2.8810    0.4352 H   0  0  0  0  0  0  0  0  0  0  0  0
   -1.9809   -2.7076   -0.5189 H   0  0  0  0  0  0  0  0  0  0  0  0
    0.2114   -1.0231    1.4082 H   0  0  0  0  0  0  0  0  0  0  0  0
    1.7873   -2.6309    0.9548 H   0  0  0  0  0  0  0  0  0  0  0  0
    1.5269   -2.4386   -0.8106 H   0  0  0  0  0  0  0  0  0  0  0  0
    4.4059    0.9229    0.9611 H   0  0  0  0  0  0  0  0  0  0  0  0
    4.1309    1.1340   -0.7936 H   0  0  0  0  0  0  0  0  0  0  0  0
    3.9886    3.3212    0.4013 H   0  0  0  0  0  0  0  0  0  0  0  0
    2.4128    2.8768   -0.2985 H   0  0  0  0  0  0  0  0  0  0  0  0
    2.6862    2.6707    1.4262 H   0  0  0  0  0  0  0  0  0  0  0  0
  1 11  2  0  0  0  0
  2 15  1  0  0  0  0
  2 16  1  0  0  0  0
  3 15  2  0  0  0  0
  4 11  1  0  0  0  0
  4 14  1  0  0  0  0
  4 33  1  0  0  0  0
  5  6  1  0  0  0  0
  5  7  1  0  0  0  0
  5  8  1  0  0  0  0
  5 11  1  0  0  0  0
  6  9  1  0  0  0  0
  6 18  1  0  0  0  0
  6 19  1  0  0  0  0
  7 10  1  0  0  0  0
  7 20  1  0  0  0  0
  7 21  1  0  0  0  0
  8 12  1  0  0  0  0
  8 13  1  0  0  0  0
  8 22  1  0  0  0  0
  9 10  1  0  0  0  0
  9 23  1  0  0  0  0
  9 24  1  0  0  0  0
 10 25  1  0  0  0  0
 10 26  1  0  0  0  0
 12 27  1  0  0  0  0
 12 28  1  0  0  0  0
 12 29  1  0  0  0  0
 13 30  1  0  0  0  0
 13 31  1  0  0  0  0
 13 32  1  0  0  0  0
 14 15  1  0  0  0  0
 14 34  1  0  0  0  0
 14 35  1  0  0  0  0
 16 17  1  0  0  0  0
 16 36  1  0  0  0  0
 16 37  1  0  0  0  0
 17 38  1  0  0  0  0
 17 39  1  0  0  0  0
 17 40  1  0  0  0  0
M  END
> <PUBCHEM_COMPOUND_CID>
91873

> <PUBCHEM_CONFORMER_RMSD>
0.8

> <PUBCHEM_CONFORMER_DIVERSEORDER>
1
55
47
50
9
43
2
17
26
10
56
51
44
12
18
49
41
19
40
46
29
53
34
48
4
11
7
23
42
25
54
33
38
13
22
6
36
37
27
8
28
39
14
52
21
16
5
24
20
15
3
31
35
30
32
45

> <PUBCHEM_MMFF94_PARTIAL_CHARGES>
10
1 -0.57
11 0.57
14 0.36
15 0.66
16 0.28
2 -0.43
3 -0.57
33 0.37
4 -0.73
5 0.06

> <PUBCHEM_EFFECTIVE_ROTOR_COUNT>
8

> <PUBCHEM_PHARMACOPHORE_FEATURES>
5
1 1 acceptor
1 3 acceptor
1 4 donor
3 8 12 13 hydrophobe
5 5 6 7 9 10 rings

> <PUBCHEM_HEAVY_ATOM_COUNT>
17

> <PUBCHEM_ATOM_DEF_STEREO_COUNT>
0

> <PUBCHEM_ATOM_UDEF_STEREO_COUNT>
0

> <PUBCHEM_BOND_DEF_STEREO_COUNT>
0

> <PUBCHEM_BOND_UDEF_STEREO_COUNT>
0

> <PUBCHEM_ISOTOPIC_ATOM_COUNT>
0

> <PUBCHEM_COMPONENT_COUNT>
1

> <PUBCHEM_CACTVS_TAUTO_COUNT>
2

> <PUBCHEM_CONFORMER_ID>
000166E100000001

> <PUBCHEM_MMFF94_ENERGY>
36.4875

> <PUBCHEM_FEATURE_SELFOVERLAP>
25.371

> <PUBCHEM_SHAPE_FINGERPRINT>
10366900 7 18115040648716249162
10608611 8 18336261263000883404
11132069 177 18338800125359232323
11715629 250 18271238434910605592
12507557 5 18337100190726311186
12633257 1 18117837686059046664
12916754 54 18343582953679989430
13024252 1 16588317029685031187
13296909 8 17968663722224522415
13897977 13 18335421300404784508
14026960 21 18410857698112117100
14223421 5 18409167735828923778
14250199 8 18343013372634322556
14386348 128 18130785706823403912
14787075 74 17973444600476964611
15375462 6 18410574019738244294
15775835 57 18059299867463947952
16945 1 18340200778671838075
18186145 218 18273217495674253930
18981168 100 18340466916494245864
19930381 70 18123467443186289624
20449540 30 18412542132661877665
20510252 161 18334857238012661627
20681677 274 18333731342664842466
20681677 76 18336256890629250148
21524375 3 17538839188157427549
22959321 28 18413387657156066516
23419403 2 16736347797647316093
23559900 14 18337378340966188210
2748010 2 18410005520776792828
3286 77 18186518779036533290
6049 1 18409736118963557806
74978 22 18265326210247772098
81228 2 17969522441222527251
84936 182 16671880793606386269

> <PUBCHEM_SHAPE_MULTIPOLES>
327.26
6.51
2.76
1.18
5.05
1.06
-0.2
-0.08
1.23
0.51
-0.03
-0.9
0.15
0.71

> <PUBCHEM_SHAPE_SELFOVERLAP>
652.94

> <PUBCHEM_SHAPE_VOLUME>
195.5

> <PUBCHEM_COORDINATE_TYPE>
2
5
10

$$$$
