439262
  -OEChem-02172602213D

 66 68  0     1  0  0  0  0  0999 V2000
   -1.0279    0.4957    0.1530 O   0  0  0  0  0  0  0  0  0  0  0  0
    2.4350    0.0354    1.2533 O   0  0  0  0  0  0  0  0  0  0  0  0
   -2.7373   -1.0077   -0.3586 O   0  0  0  0  0  0  0  0  0  0  0  0
    3.8493   -0.5669   -0.5019 O   0  0  0  0  0  0  0  0  0  0  0  0
   -6.0482    0.1602    0.7652 O   0  0  0  0  0  0  0  0  0  0  0  0
    1.8141   -2.4612   -0.0647 O   0  0  0  0  0  0  0  0  0  0  0  0
   -1.0233   -3.1542    0.3222 O   0  0  0  0  0  0  0  0  0  0  0  0
   -2.9200    1.6224   -1.4992 O   0  0  0  0  0  0  0  0  0  0  0  0
    4.4409    1.7669    2.2464 O   0  0  0  0  0  0  0  0  0  0  0  0
    7.1427    0.8698    1.4871 O   0  0  0  0  0  0  0  0  0  0  0  0
    7.2831    0.3764   -1.3576 O   0  0  0  0  0  0  0  0  0  0  0  0
   -5.6438    2.3328   -2.1713 O   0  0  0  0  0  0  0  0  0  0  0  0
   -0.5430    3.0369    1.0820 O   0  0  0  0  0  0  0  0  0  0  0  0
   -7.0420    0.0308   -1.3833 O   0  0  0  0  0  0  0  0  0  0  0  0
   -5.9339   -2.1249    2.2543 O   0  0  0  0  0  0  0  0  0  0  0  0
    3.8674   -1.3884   -3.1251 O   0  0  0  0  0  0  0  0  0  0  0  0
    1.2796   -0.1854    0.4486 C   0  0  1  0  0  0  0  0  0  0  0  0
    0.8397   -1.6432    0.5849 C   0  0  1  0  0  0  0  0  0  0  0  0
   -0.5276   -1.8712   -0.0596 C   0  0  2  0  0  0  0  0  0  0  0  0
    0.1637    0.7625    0.8946 C   0  0  1  0  0  0  0  0  0  0  0  0
   -1.5371   -0.8148    0.3895 C   0  0  1  0  0  0  0  0  0  0  0  0
   -3.7347   -0.0574    0.0078 C   0  0  1  0  0  0  0  0  0  0  0  0
    3.5497    0.4418    0.4601 C   0  0  2  0  0  0  0  0  0  0  0  0
   -4.0521    0.7946   -1.2229 C   0  0  1  0  0  0  0  0  0  0  0  0
   -4.9893   -0.7739    0.5252 C   0  0  1  0  0  0  0  0  0  0  0  0
    4.7387    0.6600    1.3957 C   0  0  1  0  0  0  0  0  0  0  0  0
    6.0176    0.9527    0.6109 C   0  0  2  0  0  0  0  0  0  0  0  0
    6.2198   -0.0608   -0.5156 C   0  0  1  0  0  0  0  0  0  0  0  0
   -5.2680    1.6818   -0.9628 C   0  0  2  0  0  0  0  0  0  0  0  0
    4.9439   -0.2097   -1.3478 C   0  0  1  0  0  0  0  0  0  0  0  0
    0.5353    2.2230    0.6580 C   0  0  0  0  0  0  0  0  0  0  0  0
   -6.4442    0.8790   -0.4047 C   0  0  2  0  0  0  0  0  0  0  0  0
   -4.7314   -1.5026    1.8413 C   0  0  0  0  0  0  0  0  0  0  0  0
    5.0833   -1.3005   -2.4050 C   0  0  0  0  0  0  0  0  0  0  0  0
    1.4830    0.0097   -0.6150 H   0  0  0  0  0  0  0  0  0  0  0  0
    0.8354   -1.9496    1.6375 H   0  0  0  0  0  0  0  0  0  0  0  0
   -0.4405   -1.8784   -1.1526 H   0  0  0  0  0  0  0  0  0  0  0  0
   -0.0540    0.6362    1.9639 H   0  0  0  0  0  0  0  0  0  0  0  0
   -1.7716   -0.9384    1.4556 H   0  0  0  0  0  0  0  0  0  0  0  0
   -3.3808    0.6137    0.8047 H   0  0  0  0  0  0  0  0  0  0  0  0
    3.2885    1.3784   -0.0508 H   0  0  0  0  0  0  0  0  0  0  0  0
   -4.2017    0.1692   -2.1106 H   0  0  0  0  0  0  0  0  0  0  0  0
   -5.3376   -1.5159   -0.2055 H   0  0  0  0  0  0  0  0  0  0  0  0
    4.8785   -0.2107    2.0472 H   0  0  0  0  0  0  0  0  0  0  0  0
    6.0108    1.9765    0.2189 H   0  0  0  0  0  0  0  0  0  0  0  0
    6.5148   -1.0287   -0.0919 H   0  0  0  0  0  0  0  0  0  0  0  0
   -4.9857    2.4619   -0.2440 H   0  0  0  0  0  0  0  0  0  0  0  0
    4.6954    0.7296   -1.8605 H   0  0  0  0  0  0  0  0  0  0  0  0
    0.7012    2.4168   -0.4069 H   0  0  0  0  0  0  0  0  0  0  0  0
    1.4271    2.5086    1.2233 H   0  0  0  0  0  0  0  0  0  0  0  0
   -7.2228    1.5882   -0.0999 H   0  0  0  0  0  0  0  0  0  0  0  0
   -4.4322   -0.7990    2.6253 H   0  0  0  0  0  0  0  0  0  0  0  0
   -3.9600   -2.2703    1.7293 H   0  0  0  0  0  0  0  0  0  0  0  0
    1.8434   -2.2099   -1.0035 H   0  0  0  0  0  0  0  0  0  0  0  0
   -1.1127   -3.1669    1.2905 H   0  0  0  0  0  0  0  0  0  0  0  0
    5.2650   -2.2745   -1.9384 H   0  0  0  0  0  0  0  0  0  0  0  0
    5.8925   -1.0786   -3.1073 H   0  0  0  0  0  0  0  0  0  0  0  0
   -2.7573    2.1839   -0.7222 H   0  0  0  0  0  0  0  0  0  0  0  0
    4.3067    2.5503    1.6860 H   0  0  0  0  0  0  0  0  0  0  0  0
    7.1657   -0.0255    1.8659 H   0  0  0  0  0  0  0  0  0  0  0  0
    7.0252    1.2282   -1.7495 H   0  0  0  0  0  0  0  0  0  0  0  0
   -6.4173    2.8887   -1.9762 H   0  0  0  0  0  0  0  0  0  0  0  0
   -0.2878    3.9605    0.9167 H   0  0  0  0  0  0  0  0  0  0  0  0
   -7.9746   -0.0838   -1.1332 H   0  0  0  0  0  0  0  0  0  0  0  0
   -5.7483   -2.5796    3.0936 H   0  0  0  0  0  0  0  0  0  0  0  0
    3.9762   -2.0919   -3.7875 H   0  0  0  0  0  0  0  0  0  0  0  0
  1 20  1  0  0  0  0
  1 21  1  0  0  0  0
  2 17  1  0  0  0  0
  2 23  1  0  0  0  0
  3 21  1  0  0  0  0
  3 22  1  0  0  0  0
  4 23  1  0  0  0  0
  4 30  1  0  0  0  0
  5 25  1  0  0  0  0
  5 32  1  0  0  0  0
  6 18  1  0  0  0  0
  6 54  1  0  0  0  0
  7 19  1  0  0  0  0
  7 55  1  0  0  0  0
  8 24  1  0  0  0  0
  8 58  1  0  0  0  0
  9 26  1  0  0  0  0
  9 59  1  0  0  0  0
 10 27  1  0  0  0  0
 10 60  1  0  0  0  0
 11 28  1  0  0  0  0
 11 61  1  0  0  0  0
 12 29  1  0  0  0  0
 12 62  1  0  0  0  0
 13 31  1  0  0  0  0
 13 63  1  0  0  0  0
 14 32  1  0  0  0  0
 14 64  1  0  0  0  0
 15 33  1  0  0  0  0
 15 65  1  0  0  0  0
 16 34  1  0  0  0  0
 16 66  1  0  0  0  0
 17 18  1  0  0  0  0
 17 20  1  0  0  0  0
 17 35  1  0  0  0  0
 18 19  1  0  0  0  0
 18 36  1  0  0  0  0
 19 21  1  0  0  0  0
 19 37  1  0  0  0  0
 20 31  1  0  0  0  0
 20 38  1  0  0  0  0
 21 39  1  0  0  0  0
 22 24  1  0  0  0  0
 22 25  1  0  0  0  0
 22 40  1  0  0  0  0
 23 26  1  0  0  0  0
 23 41  1  0  0  0  0
 24 29  1  0  0  0  0
 24 42  1  0  0  0  0
 25 33  1  0  0  0  0
 25 43  1  0  0  0  0
 26 27  1  0  0  0  0
 26 44  1  0  0  0  0
 27 28  1  0  0  0  0
 27 45  1  0  0  0  0
 28 30  1  0  0  0  0
 28 46  1  0  0  0  0
 29 32  1  0  0  0  0
 29 47  1  0  0  0  0
 30 34  1  0  0  0  0
 30 48  1  0  0  0  0
 31 49  1  0  0  0  0
 31 50  1  0  0  0  0
 32 51  1  0  0  0  0
 33 52  1  0  0  0  0
 33 53  1  0  0  0  0
 34 56  1  0  0  0  0
 34 57  1  0  0  0  0
M  END
> <PUBCHEM_COMPOUND_CID>
439262

> <PUBCHEM_CONFORMER_RMSD>
1

> <PUBCHEM_CONFORMER_DIVERSEORDER>
1
216
45
54
254
161
53
256
197
81
127
248
168
89
229
60
111
210
134
162
181
144
141
30
103
217
233
224
213
192
249
26
173
55
169
72
83
99
101
178
110
133
92
71
183
180
115
37
138
27
174
86
62
193
198
184
240
135
119
65
76
170
171
128
109
245
95
159
48
143
105
219
172
142
137
35
117
212
100
155
149
243
225
157
85
188
43
61
118
32
129
234
196
140
121
238
186
147
49
156
194
209
40
107
207
231
31
204
201
34
228
125
52
41
236
63
214
153
113
33
59
211
7
73
175
151
160
108
10
104
164
206
146
176
93
79
182
255
112
187
165
39
87
91
177
126
28
9
19
36
131
102
251
122
136
158
252
208
106
166
21
57
220
195
69
70
257
199
130
78
221
241
88
80
44
239
38
74
167
185
150
203
246
22
5
190
232
47
56
84
152
114
58
205
226
13
132
16
200
90
250
253
97
116
14
202
223
77
242
163
215
235
8
237
247
227
191
68
148
17
29
96
42
230
139
222
124
218
75
94
66
145
244
154
51
67
46
82
50
20
64
23
11
12
15
24
120
98
189
18
179
123
2
3
25
6
4

> <PUBCHEM_MMFF94_PARTIAL_CHARGES>
45
1 -0.56
10 -0.68
11 -0.68
12 -0.68
13 -0.68
14 -0.68
15 -0.68
16 -0.68
17 0.28
18 0.28
19 0.28
2 -0.56
20 0.28
21 0.56
22 0.28
23 0.56
24 0.28
25 0.28
26 0.28
27 0.28
28 0.28
29 0.28
3 -0.56
30 0.28
31 0.28
32 0.56
33 0.28
34 0.28
4 -0.56
5 -0.56
54 0.4
55 0.4
58 0.4
59 0.4
6 -0.68
60 0.4
61 0.4
62 0.4
63 0.4
64 0.4
65 0.4
66 0.4
7 -0.68
8 -0.68
9 -0.68

> <PUBCHEM_EFFECTIVE_ROTOR_COUNT>
10.6

> <PUBCHEM_PHARMACOPHORE_FEATURES>
30
1 1 acceptor
1 10 acceptor
1 10 donor
1 11 acceptor
1 11 donor
1 12 acceptor
1 12 donor
1 13 acceptor
1 13 donor
1 14 acceptor
1 14 donor
1 15 acceptor
1 15 donor
1 16 acceptor
1 16 donor
1 2 acceptor
1 3 acceptor
1 4 acceptor
1 5 acceptor
1 6 acceptor
1 6 donor
1 7 acceptor
1 7 donor
1 8 acceptor
1 8 donor
1 9 acceptor
1 9 donor
6 1 17 18 19 20 21 rings
6 4 23 26 27 28 30 rings
6 5 22 24 25 29 32 rings

> <PUBCHEM_HEAVY_ATOM_COUNT>
34

> <PUBCHEM_ATOM_DEF_STEREO_COUNT>
13

> <PUBCHEM_ATOM_UDEF_STEREO_COUNT>
2

> <PUBCHEM_BOND_DEF_STEREO_COUNT>
0

> <PUBCHEM_BOND_UDEF_STEREO_COUNT>
0

> <PUBCHEM_ISOTOPIC_ATOM_COUNT>
0

> <PUBCHEM_COMPONENT_COUNT>
1

> <PUBCHEM_CACTVS_TAUTO_COUNT>
1

> <PUBCHEM_CONFORMER_ID>
0006B3DE00000001

> <PUBCHEM_MMFF94_ENERGY>
100.9333

> <PUBCHEM_FEATURE_SELFOVERLAP>
152.485

> <PUBCHEM_SHAPE_FINGERPRINT>
10 15 17385444306837739025
11646440 116 18271814552579798249
12236239 1 17022901264048027642
12596602 18 14562535076810686721
13533116 47 16343989087662818346
1361 2 17060618898047726222
14747281 78 17840312121494446493
14840074 17 17132115731943373572
14856354 85 17385731335212782771
15081414 286 18131356349068683152
15119646 104 16200156461190321582
15183329 4 16917351424208881134
15274700 147 16180423895105878744
1577012 14 16443068305108101350
18608769 82 18335983164496624291
19377110 9 16081088177600894899
21033648 29 18338503231497603497
21792961 116 18335706009439238578
22122407 14 16081668715709690332
221357 26 17775008960439858632
2303208 19 18341059574594346955
23198884 109 16415476069562351803
23522609 53 16081667585705562388
23559900 14 17988641965198695528
23569914 152 16835437554800438589
23569943 247 17273990033791920150
24771750 20 17836934769170929484
394071 54 17846780745525874240
59682541 52 16917063326487272900
59755656 215 18341612599046885798
6669772 16 18130784547383278958

> <PUBCHEM_SHAPE_MULTIPOLES>
605.8
19.3
2.44
2.09
1.45
0.18
0.78
-3.57
3.36
-1.68
-0.31
1.08
0.1
4.43

> <PUBCHEM_SHAPE_SELFOVERLAP>
1251.352

> <PUBCHEM_SHAPE_VOLUME>
337.9

> <PUBCHEM_COORDINATE_TYPE>
2
5
10

$$$$
