14105907
  -OEChem-02172602303D

 42 43  0     1  0  0  0  0  0999 V2000
   -2.1161   -1.2774   -1.2940 O   0  0  0  0  0  0  0  0  0  0  0  0
    0.0520    0.3221    0.1057 C   0  0  2  0  0  0  0  0  0  0  0  0
   -1.4911    0.3151    0.3775 C   0  0  1  0  0  0  0  0  0  0  0  0
    0.3451    1.8280   -0.2778 C   0  0  1  0  0  0  0  0  0  0  0  0
   -2.0330    1.4793   -0.4449 C   0  0  0  0  0  0  0  0  0  0  0  0
   -1.0034    2.5589   -0.1812 C   0  0  0  0  0  0  0  0  0  0  0  0
    0.4510   -0.5960   -1.0819 C   0  0  0  0  0  0  0  0  0  0  0  0
    0.7858   -0.2086    1.3654 C   0  0  0  0  0  0  0  0  0  0  0  0
   -2.2432   -0.9795    0.0947 C   0  0  0  0  0  0  0  0  0  0  0  0
    1.9655   -0.6270   -1.3276 C   0  0  0  0  0  0  0  0  0  0  0  0
    1.4126    2.5827    0.5079 C   0  0  0  0  0  0  0  0  0  0  0  0
    2.2243   -0.5821    1.1492 C   0  0  0  0  0  0  0  0  0  0  0  0
    2.7738   -0.7599   -0.0638 C   0  0  0  0  0  0  0  0  0  0  0  0
   -3.7233   -0.8266    0.4313 C   0  0  0  0  0  0  0  0  0  0  0  0
   -1.6251   -2.1336    0.8765 C   0  0  0  0  0  0  0  0  0  0  0  0
    4.2252   -1.0955   -0.2370 C   0  0  0  0  0  0  0  0  0  0  0  0
   -1.6430    0.5729    1.4378 H   0  0  0  0  0  0  0  0  0  0  0  0
    0.6416    1.8734   -1.3345 H   0  0  0  0  0  0  0  0  0  0  0  0
   -3.0246    1.8089   -0.1211 H   0  0  0  0  0  0  0  0  0  0  0  0
   -2.0759    1.2514   -1.5159 H   0  0  0  0  0  0  0  0  0  0  0  0
   -1.0770    3.3789   -0.9029 H   0  0  0  0  0  0  0  0  0  0  0  0
   -1.1512    2.9803    0.8210 H   0  0  0  0  0  0  0  0  0  0  0  0
   -0.0265   -0.2570   -2.0101 H   0  0  0  0  0  0  0  0  0  0  0  0
    0.1710   -1.6388   -0.9486 H   0  0  0  0  0  0  0  0  0  0  0  0
    0.3175   -1.0796    1.8169 H   0  0  0  0  0  0  0  0  0  0  0  0
    0.7436    0.5528    2.1534 H   0  0  0  0  0  0  0  0  0  0  0  0
    2.2805    0.2837   -1.8508 H   0  0  0  0  0  0  0  0  0  0  0  0
    2.1885   -1.4662   -1.9983 H   0  0  0  0  0  0  0  0  0  0  0  0
    1.4928    3.6118    0.1393 H   0  0  0  0  0  0  0  0  0  0  0  0
    1.1751    2.6421    1.5742 H   0  0  0  0  0  0  0  0  0  0  0  0
    2.3980    2.1255    0.3905 H   0  0  0  0  0  0  0  0  0  0  0  0
    2.8330   -0.7030    2.0415 H   0  0  0  0  0  0  0  0  0  0  0  0
   -4.2498   -1.7793    0.2971 H   0  0  0  0  0  0  0  0  0  0  0  0
   -3.8745   -0.5017    1.4658 H   0  0  0  0  0  0  0  0  0  0  0  0
   -4.2254   -0.1222   -0.2401 H   0  0  0  0  0  0  0  0  0  0  0  0
   -0.6343   -2.4626    0.5718 H   0  0  0  0  0  0  0  0  0  0  0  0
   -2.2414   -3.0316    0.7287 H   0  0  0  0  0  0  0  0  0  0  0  0
   -1.6370   -1.9381    1.9545 H   0  0  0  0  0  0  0  0  0  0  0  0
   -2.6025   -2.1005   -1.4712 H   0  0  0  0  0  0  0  0  0  0  0  0
    4.7218   -0.3283   -0.8398 H   0  0  0  0  0  0  0  0  0  0  0  0
    4.3345   -2.0603   -0.7425 H   0  0  0  0  0  0  0  0  0  0  0  0
    4.7518   -1.1590    0.7211 H   0  0  0  0  0  0  0  0  0  0  0  0
  1  9  1  0  0  0  0
  1 39  1  0  0  0  0
  2  3  1  0  0  0  0
  2  4  1  0  0  0  0
  2  7  1  0  0  0  0
  2  8  1  0  0  0  0
  3  5  1  0  0  0  0
  3  9  1  0  0  0  0
  3 17  1  0  0  0  0
  4  6  1  0  0  0  0
  4 11  1  0  0  0  0
  4 18  1  0  0  0  0
  5  6  1  0  0  0  0
  5 19  1  0  0  0  0
  5 20  1  0  0  0  0
  6 21  1  0  0  0  0
  6 22  1  0  0  0  0
  7 10  1  0  0  0  0
  7 23  1  0  0  0  0
  7 24  1  0  0  0  0
  8 12  1  0  0  0  0
  8 25  1  0  0  0  0
  8 26  1  0  0  0  0
  9 14  1  0  0  0  0
  9 15  1  0  0  0  0
 10 13  1  0  0  0  0
 10 27  1  0  0  0  0
 10 28  1  0  0  0  0
 11 29  1  0  0  0  0
 11 30  1  0  0  0  0
 11 31  1  0  0  0  0
 12 13  2  0  0  0  0
 12 32  1  0  0  0  0
 13 16  1  0  0  0  0
 14 33  1  0  0  0  0
 14 34  1  0  0  0  0
 14 35  1  0  0  0  0
 15 36  1  0  0  0  0
 15 37  1  0  0  0  0
 15 38  1  0  0  0  0
 16 40  1  0  0  0  0
 16 41  1  0  0  0  0
 16 42  1  0  0  0  0
M  END
> <PUBCHEM_COMPOUND_CID>
14105907

> <PUBCHEM_CONFORMER_RMSD>
0.6

> <PUBCHEM_CONFORMER_DIVERSEORDER>
1
2

> <PUBCHEM_MMFF94_PARTIAL_CHARGES>
9
1 -0.68
10 0.14
12 -0.29
13 -0.28
16 0.14
32 0.15
39 0.4
8 0.14
9 0.28

> <PUBCHEM_EFFECTIVE_ROTOR_COUNT>
2.4

> <PUBCHEM_PHARMACOPHORE_FEATURES>
5
1 1 acceptor
1 1 donor
3 9 14 15 hydrophobe
5 2 3 4 5 6 rings
6 2 7 8 10 12 13 rings

> <PUBCHEM_HEAVY_ATOM_COUNT>
16

> <PUBCHEM_ATOM_DEF_STEREO_COUNT>
3

> <PUBCHEM_ATOM_UDEF_STEREO_COUNT>
0

> <PUBCHEM_BOND_DEF_STEREO_COUNT>
0

> <PUBCHEM_BOND_UDEF_STEREO_COUNT>
0

> <PUBCHEM_ISOTOPIC_ATOM_COUNT>
0

> <PUBCHEM_COMPONENT_COUNT>
1

> <PUBCHEM_CACTVS_TAUTO_COUNT>
1

> <PUBCHEM_CONFORMER_ID>
00D73D3300000001

> <PUBCHEM_MMFF94_ENERGY>
57.6492

> <PUBCHEM_FEATURE_SELFOVERLAP>
25.375

> <PUBCHEM_SHAPE_FINGERPRINT>
10353120 184 18333448750932980107
10989021 7 18412265072769050976
12138202 97 18123742054751929148
12423570 1 14208487049149996441
12524768 44 18267865167348264439
12553582 1 18408315601222096859
12716301 132 18194671584288166585
12716758 59 18122067494337444958
13024252 1 17096101177025159657
13140716 1 18339089275906594769
13538477 17 17897158027152259176
14115302 16 17676778646773991143
14817 1 15045234132830374260
15848700 24 18341322362505677079
161256 15 18337110184561749457
16752209 62 18187915137217890543
16945 1 18338505361748302985
17844478 74 17917147204675090298
17990270 104 18122626329828436203
18175812 5 17917139516694186432
18534176 82 18126283047851750332
19868273 325 18336830797023228924
20361792 2 18410570725530015871
20510252 161 18338802186927612680
20645476 183 17606126082488085229
20645477 70 18049150366260669415
20871998 184 18270963427584846359
20871999 31 18336827489750692204
21061003 4 17203326676579590298
21296965 67 18409451388121951491
21501502 16 18339932592287251765
22213442 358 18413388739656805564
22721475 48 18272658951803292927
22802520 49 17841440228217627550
232386 152 18335426759318728374
2334 1 18336822112800141241
23402539 116 18339073796475370119
23419403 2 18189873457410621324
23493267 7 18124596379993050314
23557571 272 18271536291019060492
23559900 14 18123745362773857418
23598294 1 18263639554936318882
2748010 2 18336248137607668365
568465 68 17418089889065987466
576247 118 18196680516448981959
7364860 26 18198062688448780608
77492 1 17386294164500469738
81228 2 18267598913345527225

> <PUBCHEM_SHAPE_MULTIPOLES>
323.4
5.03
2.47
1.19
1.73
1.65
-0.05
-2.74
-0.1
-0.65
0.18
0.26
-0.31
0.38

> <PUBCHEM_SHAPE_SELFOVERLAP>
664.081

> <PUBCHEM_SHAPE_VOLUME>
188.1

> <PUBCHEM_COORDINATE_TYPE>
2
5
10

$$$$
