12301593
  -OEChem-02172602433D

 46 49  0     1  0  0  0  0  0999 V2000
   -3.9581   -1.5342    0.2329 O   0  0  0  0  0  0  0  0  0  0  0  0
   -4.2742    1.1032    1.0454 O   0  0  0  0  0  0  0  0  0  0  0  0
    1.0255   -1.9152   -0.9252 N   0  0  2  0  0  0  0  0  0  0  0  0
    1.7352    0.4502   -1.4300 C   0  0  1  0  0  0  0  0  0  0  0  0
    0.5800   -0.6006   -1.4352 C   0  0  2  0  0  0  0  0  0  0  0  0
    1.1478    1.8442   -1.7091 C   0  0  0  0  0  0  0  0  0  0  0  0
   -0.7110   -0.1226   -0.7597 C   0  0  0  0  0  0  0  0  0  0  0  0
    2.6256    0.3793   -0.1947 C   0  0  0  0  0  0  0  0  0  0  0  0
    0.1619    2.2633   -0.6239 C   0  0  0  0  0  0  0  0  0  0  0  0
   -0.8995    1.2226   -0.3914 C   0  0  0  0  0  0  0  0  0  0  0  0
    1.5407   -1.8233    0.4475 C   0  0  0  0  0  0  0  0  0  0  0  0
    2.5450   -0.7225    0.6759 C   0  0  0  0  0  0  0  0  0  0  0  0
   -1.7707   -1.0292   -0.5607 C   0  0  0  0  0  0  0  0  0  0  0  0
    1.9605   -2.5901   -1.8244 C   0  0  0  0  0  0  0  0  0  0  0  0
    3.6005    1.3605    0.0533 C   0  0  0  0  0  0  0  0  0  0  0  0
   -2.0972    1.6136    0.2302 C   0  0  0  0  0  0  0  0  0  0  0  0
    3.3792   -0.7879    1.8032 C   0  0  0  0  0  0  0  0  0  0  0  0
   -2.9613   -0.6255    0.0440 C   0  0  0  0  0  0  0  0  0  0  0  0
   -3.1210    0.6945    0.4478 C   0  0  0  0  0  0  0  0  0  0  0  0
    4.4345    1.2800    1.1698 C   0  0  0  0  0  0  0  0  0  0  0  0
    4.3188    0.2098    2.0491 C   0  0  0  0  0  0  0  0  0  0  0  0
   -3.9517   -2.2573    1.4624 C   0  0  0  0  0  0  0  0  0  0  0  0
   -5.3106    1.5870    0.1928 C   0  0  0  0  0  0  0  0  0  0  0  0
    2.4003    0.2066   -2.2716 H   0  0  0  0  0  0  0  0  0  0  0  0
    0.2778   -0.7288   -2.4862 H   0  0  0  0  0  0  0  0  0  0  0  0
    0.6298    1.8207   -2.6781 H   0  0  0  0  0  0  0  0  0  0  0  0
    1.9288    2.6053   -1.8082 H   0  0  0  0  0  0  0  0  0  0  0  0
   -0.3066    3.2065   -0.9309 H   0  0  0  0  0  0  0  0  0  0  0  0
    0.6847    2.4507    0.3213 H   0  0  0  0  0  0  0  0  0  0  0  0
    1.9739   -2.7894    0.7380 H   0  0  0  0  0  0  0  0  0  0  0  0
    0.7022   -1.6585    1.1361 H   0  0  0  0  0  0  0  0  0  0  0  0
   -1.6694   -2.0650   -0.8782 H   0  0  0  0  0  0  0  0  0  0  0  0
    1.5292   -2.6852   -2.8270 H   0  0  0  0  0  0  0  0  0  0  0  0
    2.1526   -3.6105   -1.4742 H   0  0  0  0  0  0  0  0  0  0  0  0
    2.9240   -2.0779   -1.9127 H   0  0  0  0  0  0  0  0  0  0  0  0
    3.7311    2.2000   -0.6235 H   0  0  0  0  0  0  0  0  0  0  0  0
   -2.2332    2.6486    0.5377 H   0  0  0  0  0  0  0  0  0  0  0  0
    3.3029   -1.6250    2.4929 H   0  0  0  0  0  0  0  0  0  0  0  0
    5.1762    2.0529    1.3488 H   0  0  0  0  0  0  0  0  0  0  0  0
    4.9643    0.1473    2.9200 H   0  0  0  0  0  0  0  0  0  0  0  0
   -4.0463   -1.5736    2.3119 H   0  0  0  0  0  0  0  0  0  0  0  0
   -3.0346   -2.8476    1.5551 H   0  0  0  0  0  0  0  0  0  0  0  0
   -4.8076   -2.9377    1.4641 H   0  0  0  0  0  0  0  0  0  0  0  0
   -4.9739    2.4727   -0.3552 H   0  0  0  0  0  0  0  0  0  0  0  0
   -6.1649    1.8651    0.8161 H   0  0  0  0  0  0  0  0  0  0  0  0
   -5.6277    0.8088   -0.5084 H   0  0  0  0  0  0  0  0  0  0  0  0
  1 18  1  0  0  0  0
  1 22  1  0  0  0  0
  2 19  1  0  0  0  0
  2 23  1  0  0  0  0
  3  5  1  0  0  0  0
  3 11  1  0  0  0  0
  3 14  1  0  0  0  0
  4  5  1  0  0  0  0
  4  6  1  0  0  0  0
  4  8  1  0  0  0  0
  4 24  1  0  0  0  0
  5  7  1  0  0  0  0
  5 25  1  0  0  0  0
  6  9  1  0  0  0  0
  6 26  1  0  0  0  0
  6 27  1  0  0  0  0
  7 10  1  0  0  0  0
  7 13  2  0  0  0  0
  8 12  1  0  0  0  0
  8 15  2  0  0  0  0
  9 10  1  0  0  0  0
  9 28  1  0  0  0  0
  9 29  1  0  0  0  0
 10 16  2  0  0  0  0
 11 12  1  0  0  0  0
 11 30  1  0  0  0  0
 11 31  1  0  0  0  0
 12 17  2  0  0  0  0
 13 18  1  0  0  0  0
 13 32  1  0  0  0  0
 14 33  1  0  0  0  0
 14 34  1  0  0  0  0
 14 35  1  0  0  0  0
 15 20  1  0  0  0  0
 15 36  1  0  0  0  0
 16 19  1  0  0  0  0
 16 37  1  0  0  0  0
 17 21  1  0  0  0  0
 17 38  1  0  0  0  0
 18 19  2  0  0  0  0
 20 21  2  0  0  0  0
 20 39  1  0  0  0  0
 21 40  1  0  0  0  0
 22 41  1  0  0  0  0
 22 42  1  0  0  0  0
 22 43  1  0  0  0  0
 23 44  1  0  0  0  0
 23 45  1  0  0  0  0
 23 46  1  0  0  0  0
M  END
> <PUBCHEM_COMPOUND_CID>
12301593

> <PUBCHEM_CONFORMER_RMSD>
0.6

> <PUBCHEM_CONFORMER_DIVERSEORDER>
4
10
5
11
17
13
2
6
21
18
12
14
3
19
15
8
1
16
20
7
9

> <PUBCHEM_MMFF94_PARTIAL_CHARGES>
28
1 -0.36
10 -0.14
11 0.41
12 -0.14
13 -0.15
14 0.27
15 -0.15
16 -0.15
17 -0.15
18 0.08
19 0.08
2 -0.36
20 -0.15
21 -0.15
22 0.28
23 0.28
3 -0.81
32 0.15
36 0.15
37 0.15
38 0.15
39 0.15
4 0.14
40 0.15
5 0.41
7 -0.14
8 -0.14
9 0.14

> <PUBCHEM_EFFECTIVE_ROTOR_COUNT>
2.8

> <PUBCHEM_PHARMACOPHORE_FEATURES>
7
1 1 acceptor
1 2 acceptor
1 3 cation
6 3 4 5 8 11 12 rings
6 4 5 6 7 9 10 rings
6 7 10 13 16 18 19 rings
6 8 12 15 17 20 21 rings

> <PUBCHEM_HEAVY_ATOM_COUNT>
23

> <PUBCHEM_ATOM_DEF_STEREO_COUNT>
0

> <PUBCHEM_ATOM_UDEF_STEREO_COUNT>
2

> <PUBCHEM_BOND_DEF_STEREO_COUNT>
0

> <PUBCHEM_BOND_UDEF_STEREO_COUNT>
0

> <PUBCHEM_ISOTOPIC_ATOM_COUNT>
0

> <PUBCHEM_COMPONENT_COUNT>
1

> <PUBCHEM_CACTVS_TAUTO_COUNT>
1

> <PUBCHEM_CONFORMER_ID>
00BBB51900000004

> <PUBCHEM_MMFF94_ENERGY>
91.3974

> <PUBCHEM_FEATURE_SELFOVERLAP>
35.674

> <PUBCHEM_SHAPE_FINGERPRINT>
10498660 4 14045728318749390673
10863032 1 14189291616671081604
11961588 58 12606817273053463168
12363563 72 13623807190094893706
12382932 28 18410854339236760125
12553582 1 17967538943224925253
12633257 1 17894628162433969265
12788726 201 17622998415145377790
12892183 10 18336535110279252616
13083527 12 17896032307623487309
13134695 92 15068621634132272902
13140716 1 18339369539544746247
13224815 77 18202006529689300815
13533116 47 17844536500759719375
13544653 18 16298374756635737720
14081887 123 18202004322049827945
14178342 30 18409173199148741067
14223421 5 18341894026541475604
14341114 328 18186516618388175072
14787075 74 17168141295484842472
16945 1 18130212857075639542
17349148 13 18411129252147079469
17921350 177 14757379428588362418
17980427 23 18339634629210641229
1813 80 16443348624327022828
19784866 170 18342458131793743572
20626108 58 17968373567250924697
20715895 44 18118113681185573341
20775530 9 15070563204331909040
21033648 29 17704072914599541528
21069387 34 16008746961187043235
21120745 212 15905211183034521550
21421861 104 17676782967373960333
21452121 103 18130222627735977268
21756936 100 17630587124637133920
21859007 373 17460020783437084557
221357 26 8790879692594712265
22149856 69 18057348153790925347
22182313 1 18118962486459763981
23382010 3 11311765220328529180
23559900 14 18268166278789099343
25 1 13758080735616395084
2637199 183 12031790292096723880
2748010 2 18193839232363254972
2838139 119 14045463397056583130
392239 28 18049715510482755224
394222 165 17753068359983599308
427121 178 17846782901356408380
439807 62 17317322058591291627
46194498 28 10809642401480837387
474 4 14764339474630721600
49207404 50 18272932721756484690
495365 180 17488461875943667927
5104073 3 18411139129917732987
5281201 14 11169921597331924107
6442390 28 17845934147316020422
6823239 73 18266761132919777870
7064713 232 18341887493827809224
7364860 26 17987524710486006782
7808743 9 17772458239302701560

> <PUBCHEM_SHAPE_MULTIPOLES>
456.61
8.85
2.54
1.74
5.55
0.59
0.01
-1.24
5.58
0.69
-0.45
-1.56
0.45
0.53

> <PUBCHEM_SHAPE_SELFOVERLAP>
996.364

> <PUBCHEM_SHAPE_VOLUME>
247

> <PUBCHEM_COORDINATE_TYPE>
2
5
10

$$$$
