12301594
  -OEChem-02172602463D

 46 49  0     1  0  0  0  0  0999 V2000
    4.1447   -1.6937    0.4570 O   0  0  0  0  0  0  0  0  0  0  0  0
    4.9772    0.8635   -0.2405 O   0  0  0  0  0  0  0  0  0  0  0  0
   -0.9852   -1.6645   -0.0374 N   0  0  1  0  0  0  0  0  0  0  0  0
   -1.5081    0.7656   -0.3458 C   0  0  2  0  0  0  0  0  0  0  0  0
   -0.5782   -0.2887    0.3231 C   0  0  2  0  0  0  0  0  0  0  0  0
   -1.0492    2.1579    0.1184 C   0  0  0  0  0  0  0  0  0  0  0  0
    0.9053    0.0112    0.1339 C   0  0  0  0  0  0  0  0  0  0  0  0
   -2.9741    0.4466   -0.0805 C   0  0  0  0  0  0  0  0  0  0  0  0
    0.3624    2.4446   -0.3960 C   0  0  0  0  0  0  0  0  0  0  0  0
    1.3364    1.3169   -0.1712 C   0  0  0  0  0  0  0  0  0  0  0  0
   -2.3171   -1.9435    0.5251 C   0  0  0  0  0  0  0  0  0  0  0  0
   -3.3501   -0.8618    0.2933 C   0  0  0  0  0  0  0  0  0  0  0  0
    1.8742   -0.9821    0.3668 C   0  0  0  0  0  0  0  0  0  0  0  0
   -0.9280   -1.9698   -1.4678 C   0  0  0  0  0  0  0  0  0  0  0  0
   -3.9834    1.3985   -0.2945 C   0  0  0  0  0  0  0  0  0  0  0  0
    2.7091    1.5818   -0.3084 C   0  0  0  0  0  0  0  0  0  0  0  0
   -4.7035   -1.1677    0.5074 C   0  0  0  0  0  0  0  0  0  0  0  0
    3.2352   -0.7034    0.2381 C   0  0  0  0  0  0  0  0  0  0  0  0
    3.6525    0.5768   -0.1067 C   0  0  0  0  0  0  0  0  0  0  0  0
   -5.3274    1.0796   -0.0892 C   0  0  0  0  0  0  0  0  0  0  0  0
   -5.6869   -0.2004    0.3176 C   0  0  0  0  0  0  0  0  0  0  0  0
    4.5297   -2.4805   -0.6685 C   0  0  0  0  0  0  0  0  0  0  0  0
    5.6645    1.3129    0.9257 C   0  0  0  0  0  0  0  0  0  0  0  0
   -1.3820    0.7288   -1.4378 H   0  0  0  0  0  0  0  0  0  0  0  0
   -0.7077   -0.2008    1.4148 H   0  0  0  0  0  0  0  0  0  0  0  0
   -1.0724    2.2149    1.2148 H   0  0  0  0  0  0  0  0  0  0  0  0
   -1.7051    2.9539   -0.2481 H   0  0  0  0  0  0  0  0  0  0  0  0
    0.7312    3.3551    0.0920 H   0  0  0  0  0  0  0  0  0  0  0  0
    0.3184    2.6438   -1.4743 H   0  0  0  0  0  0  0  0  0  0  0  0
   -2.2098   -2.0715    1.6104 H   0  0  0  0  0  0  0  0  0  0  0  0
   -2.6872   -2.9034    0.1423 H   0  0  0  0  0  0  0  0  0  0  0  0
    1.5715   -1.9866    0.6547 H   0  0  0  0  0  0  0  0  0  0  0  0
    0.0590   -1.7470   -1.8860 H   0  0  0  0  0  0  0  0  0  0  0  0
   -1.6778   -1.4343   -2.0589 H   0  0  0  0  0  0  0  0  0  0  0  0
   -1.0896   -3.0425   -1.6240 H   0  0  0  0  0  0  0  0  0  0  0  0
   -3.7451    2.4013   -0.6363 H   0  0  0  0  0  0  0  0  0  0  0  0
    3.0422    2.5844   -0.5692 H   0  0  0  0  0  0  0  0  0  0  0  0
   -4.9963   -2.1671    0.8199 H   0  0  0  0  0  0  0  0  0  0  0  0
   -6.0933    1.8321   -0.2534 H   0  0  0  0  0  0  0  0  0  0  0  0
   -6.7319   -0.4474    0.4796 H   0  0  0  0  0  0  0  0  0  0  0  0
    5.2596   -3.2227   -0.3340 H   0  0  0  0  0  0  0  0  0  0  0  0
    4.9944   -1.8536   -1.4360 H   0  0  0  0  0  0  0  0  0  0  0  0
    3.6631   -3.0041   -1.0846 H   0  0  0  0  0  0  0  0  0  0  0  0
    5.6280    0.5522    1.7119 H   0  0  0  0  0  0  0  0  0  0  0  0
    5.2312    2.2501    1.2890 H   0  0  0  0  0  0  0  0  0  0  0  0
    6.7100    1.4909    0.6599 H   0  0  0  0  0  0  0  0  0  0  0  0
  1 18  1  0  0  0  0
  1 22  1  0  0  0  0
  2 19  1  0  0  0  0
  2 23  1  0  0  0  0
  3  5  1  0  0  0  0
  3 11  1  0  0  0  0
  3 14  1  0  0  0  0
  4  5  1  0  0  0  0
  4  6  1  0  0  0  0
  4  8  1  0  0  0  0
  4 24  1  0  0  0  0
  5  7  1  0  0  0  0
  5 25  1  0  0  0  0
  6  9  1  0  0  0  0
  6 26  1  0  0  0  0
  6 27  1  0  0  0  0
  7 10  1  0  0  0  0
  7 13  2  0  0  0  0
  8 12  1  0  0  0  0
  8 15  2  0  0  0  0
  9 10  1  0  0  0  0
  9 28  1  0  0  0  0
  9 29  1  0  0  0  0
 10 16  2  0  0  0  0
 11 12  1  0  0  0  0
 11 30  1  0  0  0  0
 11 31  1  0  0  0  0
 12 17  2  0  0  0  0
 13 18  1  0  0  0  0
 13 32  1  0  0  0  0
 14 33  1  0  0  0  0
 14 34  1  0  0  0  0
 14 35  1  0  0  0  0
 15 20  1  0  0  0  0
 15 36  1  0  0  0  0
 16 19  1  0  0  0  0
 16 37  1  0  0  0  0
 17 21  1  0  0  0  0
 17 38  1  0  0  0  0
 18 19  2  0  0  0  0
 20 21  2  0  0  0  0
 20 39  1  0  0  0  0
 21 40  1  0  0  0  0
 22 41  1  0  0  0  0
 22 42  1  0  0  0  0
 22 43  1  0  0  0  0
 23 44  1  0  0  0  0
 23 45  1  0  0  0  0
 23 46  1  0  0  0  0
M  END
> <PUBCHEM_COMPOUND_CID>
12301594

> <PUBCHEM_CONFORMER_RMSD>
0.6

> <PUBCHEM_CONFORMER_DIVERSEORDER>
1
6
5
7
3
2
4

> <PUBCHEM_MMFF94_PARTIAL_CHARGES>
28
1 -0.36
10 -0.14
11 0.41
12 -0.14
13 -0.15
14 0.27
15 -0.15
16 -0.15
17 -0.15
18 0.08
19 0.08
2 -0.36
20 -0.15
21 -0.15
22 0.28
23 0.28
3 -0.81
32 0.15
36 0.15
37 0.15
38 0.15
39 0.15
4 0.14
40 0.15
5 0.41
7 -0.14
8 -0.14
9 0.14

> <PUBCHEM_EFFECTIVE_ROTOR_COUNT>
2.8

> <PUBCHEM_PHARMACOPHORE_FEATURES>
7
1 1 acceptor
1 2 acceptor
1 3 cation
6 3 4 5 8 11 12 rings
6 4 5 6 7 9 10 rings
6 7 10 13 16 18 19 rings
6 8 12 15 17 20 21 rings

> <PUBCHEM_HEAVY_ATOM_COUNT>
23

> <PUBCHEM_ATOM_DEF_STEREO_COUNT>
2

> <PUBCHEM_ATOM_UDEF_STEREO_COUNT>
0

> <PUBCHEM_BOND_DEF_STEREO_COUNT>
0

> <PUBCHEM_BOND_UDEF_STEREO_COUNT>
0

> <PUBCHEM_ISOTOPIC_ATOM_COUNT>
0

> <PUBCHEM_COMPONENT_COUNT>
1

> <PUBCHEM_CACTVS_TAUTO_COUNT>
1

> <PUBCHEM_CONFORMER_ID>
00BBB51A00000001

> <PUBCHEM_MMFF94_ENERGY>
93.9818

> <PUBCHEM_FEATURE_SELFOVERLAP>
35.585

> <PUBCHEM_SHAPE_FINGERPRINT>
10 15 18335974385546756376
10366900 7 14836129879201648762
11578080 2 17272559792480396585
12011746 2 18260825978375674919
12107183 9 17759519976255524673
12236239 1 18060419093339687673
12788726 201 17632304432069765848
13140716 1 18122903393768557272
13533116 47 17989205911067596914
13862211 1 18337667525630721587
14178342 30 17836910566823682994
14341114 176 18335427854909785707
14790565 3 18409454673867404565
15099037 51 18409448068513281703
15196674 1 18409167692821235049
15536298 74 18410292510232808328
1601671 61 18411420626321929960
17349148 13 17988931063251570247
1813 80 17022903449769825780
19141452 34 18342737454960320479
19591789 44 18408603630508441187
200 152 18272931626835112849
20645477 70 18411983520915679606
21033648 29 17917699223821017953
21267235 1 18335711549841295330
21279426 13 18264487295860888493
21421861 104 17895460441903535394
21682296 61 18199476463060789687
21792934 111 18338504245041326433
221490 88 18116442629241814537
23402539 116 18272365403937303093
23559900 14 18411418397882457520
3004659 81 18187368693003239798
335352 9 18336828585589812517
34934 24 18411132571877016200
350125 39 18339360769653641738
3545911 37 18410012148211867896
3680242 22 18113896018456515824
4073 2 17967821590675226970
4214541 1 18335139795706226481
4340502 62 16660365865899638321
465052 167 18410302423534623407
5104073 3 18409449159007577944
59755656 215 18410579479364292734
6138700 20 18265336101230907294
9709674 26 18335145331423419858

> <PUBCHEM_SHAPE_MULTIPOLES>
456.61
11.84
2.54
0.84
0.82
0.26
0.1
0.19
-1.61
1.11
0.36
0.13
0.21
0.62

> <PUBCHEM_SHAPE_SELFOVERLAP>
995.074

> <PUBCHEM_SHAPE_VOLUME>
248.2

> <PUBCHEM_COORDINATE_TYPE>
2
5
10

$$$$
