102146436
  -OEChem-02172602513D

 63 65  0     0  0  0  0  0  0999 V2000
  -11.4704   -2.5019   -0.6085 F   0  0  0  0  0  0  0  0  0  0  0  0
  -12.6011   -1.5126    0.9637 F   0  0  0  0  0  0  0  0  0  0  0  0
    7.5604    1.4716   -0.0673 O   0  0  0  0  0  0  0  0  0  0  0  0
   -4.6713   -0.3844   -0.1266 O   0  0  0  0  0  0  0  0  0  0  0  0
  -10.9485   -0.3733   -0.0387 O   0  0  0  0  0  0  0  0  0  0  0  0
   -4.9855    1.9065    0.1643 O   0  0  0  0  0  0  0  0  0  0  0  0
   11.9798   -0.6248    0.4434 C   0  0  0  0  0  0  0  0  0  0  0  0
   10.6430   -0.6654   -0.3001 C   0  0  0  0  0  0  0  0  0  0  0  0
   12.9532   -1.7232    0.0062 C   0  0  0  0  0  0  0  0  0  0  0  0
    9.7211    0.4640    0.1574 C   0  0  0  0  0  0  0  0  0  0  0  0
   14.3155   -1.6381    0.6957 C   0  0  0  0  0  0  0  0  0  0  0  0
    8.3723    0.4082   -0.5459 C   0  0  0  0  0  0  0  0  0  0  0  0
   15.2674   -2.7045    0.1755 C   0  0  0  0  0  0  0  0  0  0  0  0
    6.2052    1.2654   -0.0726 C   0  0  0  0  0  0  0  0  0  0  0  0
    5.4011    1.8905    0.8805 C   0  0  0  0  0  0  0  0  0  0  0  0
    5.6302    0.4314   -1.0315 C   0  0  0  0  0  0  0  0  0  0  0  0
    4.0220    1.6815    0.8747 C   0  0  0  0  0  0  0  0  0  0  0  0
    4.2511    0.2224   -1.0372 C   0  0  0  0  0  0  0  0  0  0  0  0
    3.4470    0.8476   -0.0842 C   0  0  0  0  0  0  0  0  0  0  0  0
    2.0343    0.6343   -0.0913 C   0  0  0  0  0  0  0  0  0  0  0  0
   -0.5679    0.2407   -0.1044 C   0  0  0  0  0  0  0  0  0  0  0  0
   -6.8854    0.4743    0.0065 C   0  0  0  0  0  0  0  0  0  0  0  0
   -3.3258   -0.1789   -0.1193 C   0  0  0  0  0  0  0  0  0  0  0  0
   -1.2419   -0.0089    1.0911 C   0  0  0  0  0  0  0  0  0  0  0  0
   -1.2730    0.2807   -1.3073 C   0  0  0  0  0  0  0  0  0  0  0  0
   -2.6208   -0.2187    1.0837 C   0  0  0  0  0  0  0  0  0  0  0  0
   -2.6518    0.0708   -1.3148 C   0  0  0  0  0  0  0  0  0  0  0  0
   -7.8145    1.5043    0.1544 C   0  0  0  0  0  0  0  0  0  0  0  0
   -7.3217   -0.8405   -0.1570 C   0  0  0  0  0  0  0  0  0  0  0  0
    0.8464    0.4547   -0.0973 C   0  0  0  0  0  0  0  0  0  0  0  0
   -9.6160   -0.0955   -0.0240 C   0  0  0  0  0  0  0  0  0  0  0  0
   -5.4316    0.7777    0.0241 C   0  0  0  0  0  0  0  0  0  0  0  0
   -9.1798    1.2194    0.1393 C   0  0  0  0  0  0  0  0  0  0  0  0
   -8.6870   -1.1253   -0.1720 C   0  0  0  0  0  0  0  0  0  0  0  0
  -11.3558   -1.6498    0.4397 C   0  0  0  0  0  0  0  0  0  0  0  0
   11.8002   -0.7147    1.5219 H   0  0  0  0  0  0  0  0  0  0  0  0
   12.4501    0.3532    0.2815 H   0  0  0  0  0  0  0  0  0  0  0  0
   10.1594   -1.6339   -0.1248 H   0  0  0  0  0  0  0  0  0  0  0  0
   10.8195   -0.5821   -1.3792 H   0  0  0  0  0  0  0  0  0  0  0  0
   12.5036   -2.7036    0.2072 H   0  0  0  0  0  0  0  0  0  0  0  0
   13.0961   -1.6580   -1.0798 H   0  0  0  0  0  0  0  0  0  0  0  0
   10.1903    1.4378   -0.0306 H   0  0  0  0  0  0  0  0  0  0  0  0
    9.5657    0.4104    1.2423 H   0  0  0  0  0  0  0  0  0  0  0  0
   14.1910   -1.7569    1.7781 H   0  0  0  0  0  0  0  0  0  0  0  0
   14.7569   -0.6494    0.5256 H   0  0  0  0  0  0  0  0  0  0  0  0
    7.9236   -0.5709   -0.3331 H   0  0  0  0  0  0  0  0  0  0  0  0
    8.5079    0.5188   -1.6281 H   0  0  0  0  0  0  0  0  0  0  0  0
   14.8676   -3.7078    0.3540 H   0  0  0  0  0  0  0  0  0  0  0  0
   16.2344   -2.6288    0.6826 H   0  0  0  0  0  0  0  0  0  0  0  0
   15.4378   -2.5882   -0.8996 H   0  0  0  0  0  0  0  0  0  0  0  0
    5.8437    2.5412    1.6297 H   0  0  0  0  0  0  0  0  0  0  0  0
    6.2165   -0.0518   -1.8074 H   0  0  0  0  0  0  0  0  0  0  0  0
    3.4085    2.1759    1.6241 H   0  0  0  0  0  0  0  0  0  0  0  0
    3.8165   -0.4255   -1.7948 H   0  0  0  0  0  0  0  0  0  0  0  0
   -0.7063   -0.0433    2.0368 H   0  0  0  0  0  0  0  0  0  0  0  0
   -0.7618    0.4738   -2.2474 H   0  0  0  0  0  0  0  0  0  0  0  0
   -7.4951    2.5350    0.2830 H   0  0  0  0  0  0  0  0  0  0  0  0
   -6.6325   -1.6707   -0.2816 H   0  0  0  0  0  0  0  0  0  0  0  0
   -3.1397   -0.4134    2.0183 H   0  0  0  0  0  0  0  0  0  0  0  0
   -3.1951    0.1024   -2.2554 H   0  0  0  0  0  0  0  0  0  0  0  0
   -9.8991    2.0255    0.2552 H   0  0  0  0  0  0  0  0  0  0  0  0
   -8.9865   -2.1575   -0.3279 H   0  0  0  0  0  0  0  0  0  0  0  0
  -10.7106   -2.0733    1.2174 H   0  0  0  0  0  0  0  0  0  0  0  0
  1 35  1  0  0  0  0
  2 35  1  0  0  0  0
  3 12  1  0  0  0  0
  3 14  1  0  0  0  0
  4 23  1  0  0  0  0
  4 32  1  0  0  0  0
  5 31  1  0  0  0  0
  5 35  1  0  0  0  0
  6 32  2  0  0  0  0
  7  8  1  0  0  0  0
  7  9  1  0  0  0  0
  7 36  1  0  0  0  0
  7 37  1  0  0  0  0
  8 10  1  0  0  0  0
  8 38  1  0  0  0  0
  8 39  1  0  0  0  0
  9 11  1  0  0  0  0
  9 40  1  0  0  0  0
  9 41  1  0  0  0  0
 10 12  1  0  0  0  0
 10 42  1  0  0  0  0
 10 43  1  0  0  0  0
 11 13  1  0  0  0  0
 11 44  1  0  0  0  0
 11 45  1  0  0  0  0
 12 46  1  0  0  0  0
 12 47  1  0  0  0  0
 13 48  1  0  0  0  0
 13 49  1  0  0  0  0
 13 50  1  0  0  0  0
 14 15  2  0  0  0  0
 14 16  1  0  0  0  0
 15 17  1  0  0  0  0
 15 51  1  0  0  0  0
 16 18  2  0  0  0  0
 16 52  1  0  0  0  0
 17 19  2  0  0  0  0
 17 53  1  0  0  0  0
 18 19  1  0  0  0  0
 18 54  1  0  0  0  0
 19 20  1  0  0  0  0
 20 30  3  0  0  0  0
 21 24  2  0  0  0  0
 21 25  1  0  0  0  0
 21 30  1  0  0  0  0
 22 28  2  0  0  0  0
 22 29  1  0  0  0  0
 22 32  1  0  0  0  0
 23 26  2  0  0  0  0
 23 27  1  0  0  0  0
 24 26  1  0  0  0  0
 24 55  1  0  0  0  0
 25 27  2  0  0  0  0
 25 56  1  0  0  0  0
 26 59  1  0  0  0  0
 27 60  1  0  0  0  0
 28 33  1  0  0  0  0
 28 57  1  0  0  0  0
 29 34  2  0  0  0  0
 29 58  1  0  0  0  0
 31 33  2  0  0  0  0
 31 34  1  0  0  0  0
 33 61  1  0  0  0  0
 34 62  1  0  0  0  0
 35 63  1  0  0  0  0
M  END
> <PUBCHEM_COMPOUND_CID>
102146436

> <PUBCHEM_CONFORMER_RMSD>
1.2

> <PUBCHEM_CONFORMER_DIVERSEORDER>
1
7
14
6
11
2
8
10
4
12
5
9
13
3

> <PUBCHEM_MMFF94_PARTIAL_CHARGES>
41
1 -0.34
12 0.28
14 0.08
15 -0.15
16 -0.15
17 -0.15
18 -0.15
19 0.07
2 -0.34
20 -0.07
21 0.07
22 0.09
23 0.08
24 -0.15
25 -0.15
26 -0.15
27 -0.15
28 -0.15
29 -0.15
3 -0.36
30 -0.07
31 0.08
32 0.63
33 -0.15
34 -0.15
35 0.96
4 -0.23
5 -0.36
51 0.15
52 0.15
53 0.15
54 0.15
55 0.15
56 0.15
57 0.15
58 0.15
59 0.15
6 -0.57
60 0.15
61 0.15
62 0.15

> <PUBCHEM_EFFECTIVE_ROTOR_COUNT>
12

> <PUBCHEM_PHARMACOPHORE_FEATURES>
8
1 13 hydrophobe
1 3 acceptor
1 5 acceptor
1 6 acceptor
5 7 8 9 10 11 hydrophobe
6 14 15 16 17 18 19 rings
6 21 23 24 25 26 27 rings
6 22 28 29 31 33 34 rings

> <PUBCHEM_HEAVY_ATOM_COUNT>
35

> <PUBCHEM_ATOM_DEF_STEREO_COUNT>
0

> <PUBCHEM_ATOM_UDEF_STEREO_COUNT>
0

> <PUBCHEM_BOND_DEF_STEREO_COUNT>
0

> <PUBCHEM_BOND_UDEF_STEREO_COUNT>
0

> <PUBCHEM_ISOTOPIC_ATOM_COUNT>
0

> <PUBCHEM_COMPONENT_COUNT>
1

> <PUBCHEM_CACTVS_TAUTO_COUNT>
1

> <PUBCHEM_CONFORMER_ID>
0616A18400000001

> <PUBCHEM_MMFF94_ENERGY>
91.6128

> <PUBCHEM_FEATURE_SELFOVERLAP>
40.597

> <PUBCHEM_SHAPE_FINGERPRINT>
10883706 142 18334012800086825293
12013929 2 16950280715250430376
12498461 61 17988918994019494510
12522641 33 13190333574161497393
12741549 16 17988922263655924696
14251764 46 18113900476817399045
14251920 1 18335139786678344597
15219723 13 18408885110297558354
15247644 1 18261111889374081842
15510794 2 18342181085276546303
16728433 110 15482670190965287016
20105231 36 18187364324958008108
21102433 48 18272086081678821718
21362035 211 18407759249515810050
232437 2 18410293622613637181
3092352 35 18410012152665279135
3991529 128 11671773872881384154
4874694 18 16702303451850166550
5381727 24 18413388743571893447
54131252 152 17989481932301005767
57303763 39 11026097775490500720
57828716 72 9727632796039164202
57828716 8 18342735225914790686
6691757 9 17604158099705870481
67123 10 18342459270819972085
9663363 56 14117800215175957648

> <PUBCHEM_SHAPE_MULTIPOLES>
682.26
64.61
1.89
0.96
99.36
0.64
0.06
48.64
-8.05
1.63
-0.26
0.16
-0.04
-0.29

> <PUBCHEM_SHAPE_SELFOVERLAP>
1438.683

> <PUBCHEM_SHAPE_VOLUME>
382.8

> <PUBCHEM_COORDINATE_TYPE>
2
5
10

$$$$
