23242103
  -OEChem-02172602343D

 39 41  0     1  0  0  0  0  0999 V2000
    0.0489   -0.1782   -0.2607 C   0  0  2  0  0  0  0  0  0  0  0  0
   -0.9208    0.2456    0.8932 C   0  0  2  0  0  0  0  0  0  0  0  0
    1.0076    1.0423   -0.4152 C   0  0  1  0  0  0  0  0  0  0  0  0
   -2.1131   -0.2328    0.0387 C   0  0  0  0  0  0  0  0  0  0  0  0
   -1.2185   -0.1762   -1.2042 C   0  0  0  0  0  0  0  0  0  0  0  0
   -0.7435    1.7511    1.1198 C   0  0  0  0  0  0  0  0  0  0  0  0
    0.1167    2.2474   -0.0415 C   0  0  0  0  0  0  0  0  0  0  0  0
    0.7638   -1.4928   -0.0351 C   0  0  0  0  0  0  0  0  0  0  0  0
    2.1991    0.9725    0.5769 C   0  0  0  0  0  0  0  0  0  0  0  0
    1.5268    1.1609   -1.8538 C   0  0  0  0  0  0  0  0  0  0  0  0
   -2.6603   -1.6138    0.3224 C   0  0  0  0  0  0  0  0  0  0  0  0
   -3.2567    0.7632    0.0124 C   0  0  0  0  0  0  0  0  0  0  0  0
    1.9200   -1.4834    0.9310 C   0  0  0  0  0  0  0  0  0  0  0  0
    2.9057   -0.3778    0.5803 C   0  0  0  0  0  0  0  0  0  0  0  0
    0.4243   -2.6281   -0.6643 C   0  0  0  0  0  0  0  0  0  0  0  0
   -0.8196   -0.3017    1.8389 H   0  0  0  0  0  0  0  0  0  0  0  0
   -1.3514    0.7330   -1.8034 H   0  0  0  0  0  0  0  0  0  0  0  0
   -1.3407   -0.9927   -1.9206 H   0  0  0  0  0  0  0  0  0  0  0  0
   -0.1954    1.9041    2.0579 H   0  0  0  0  0  0  0  0  0  0  0  0
   -1.6695    2.3183    1.2319 H   0  0  0  0  0  0  0  0  0  0  0  0
   -0.5296    2.5416   -0.8761 H   0  0  0  0  0  0  0  0  0  0  0  0
    0.6976    3.1340    0.2354 H   0  0  0  0  0  0  0  0  0  0  0  0
    1.8650    1.1698    1.6026 H   0  0  0  0  0  0  0  0  0  0  0  0
    2.9254    1.7616    0.3444 H   0  0  0  0  0  0  0  0  0  0  0  0
    0.7145    1.3078   -2.5728 H   0  0  0  0  0  0  0  0  0  0  0  0
    2.2065    2.0141   -1.9560 H   0  0  0  0  0  0  0  0  0  0  0  0
    2.0652    0.2596   -2.1641 H   0  0  0  0  0  0  0  0  0  0  0  0
   -1.8866   -2.3569    0.5192 H   0  0  0  0  0  0  0  0  0  0  0  0
   -3.2714   -1.9798   -0.5103 H   0  0  0  0  0  0  0  0  0  0  0  0
   -3.2968   -1.6022    1.2154 H   0  0  0  0  0  0  0  0  0  0  0  0
   -4.0687    0.4040   -0.6318 H   0  0  0  0  0  0  0  0  0  0  0  0
   -2.9694    1.7395   -0.3915 H   0  0  0  0  0  0  0  0  0  0  0  0
   -3.6783    0.9138    1.0126 H   0  0  0  0  0  0  0  0  0  0  0  0
    1.5364   -1.3345    1.9479 H   0  0  0  0  0  0  0  0  0  0  0  0
    2.4503   -2.4433    0.9343 H   0  0  0  0  0  0  0  0  0  0  0  0
    3.7146   -0.3630    1.3200 H   0  0  0  0  0  0  0  0  0  0  0  0
    3.3712   -0.5722   -0.3928 H   0  0  0  0  0  0  0  0  0  0  0  0
   -0.3779   -2.7112   -1.3836 H   0  0  0  0  0  0  0  0  0  0  0  0
    0.9713   -3.5471   -0.4736 H   0  0  0  0  0  0  0  0  0  0  0  0
  1  2  1  0  0  0  0
  1  3  1  0  0  0  0
  1  5  1  0  0  0  0
  1  8  1  0  0  0  0
  2  4  1  0  0  0  0
  2  6  1  0  0  0  0
  2 16  1  0  0  0  0
  3  7  1  0  0  0  0
  3  9  1  0  0  0  0
  3 10  1  0  0  0  0
  4  5  1  0  0  0  0
  4 11  1  0  0  0  0
  4 12  1  0  0  0  0
  5 17  1  0  0  0  0
  5 18  1  0  0  0  0
  6  7  1  0  0  0  0
  6 19  1  0  0  0  0
  6 20  1  0  0  0  0
  7 21  1  0  0  0  0
  7 22  1  0  0  0  0
  8 13  1  0  0  0  0
  8 15  2  0  0  0  0
  9 14  1  0  0  0  0
  9 23  1  0  0  0  0
  9 24  1  0  0  0  0
 10 25  1  0  0  0  0
 10 26  1  0  0  0  0
 10 27  1  0  0  0  0
 11 28  1  0  0  0  0
 11 29  1  0  0  0  0
 11 30  1  0  0  0  0
 12 31  1  0  0  0  0
 12 32  1  0  0  0  0
 12 33  1  0  0  0  0
 13 14  1  0  0  0  0
 13 34  1  0  0  0  0
 13 35  1  0  0  0  0
 14 36  1  0  0  0  0
 14 37  1  0  0  0  0
 15 38  1  0  0  0  0
 15 39  1  0  0  0  0
M  END
> <PUBCHEM_COMPOUND_CID>
23242103

> <PUBCHEM_CONFORMER_RMSD>
0.6

> <PUBCHEM_CONFORMER_DIVERSEORDER>
1

> <PUBCHEM_MMFF94_PARTIAL_CHARGES>
6
1 0.12
13 0.14
15 -0.3
38 0.15
39 0.15
8 -0.25

> <PUBCHEM_EFFECTIVE_ROTOR_COUNT>
1.4

> <PUBCHEM_PHARMACOPHORE_FEATURES>
3
3 4 11 12 hydrophobe
6 1 3 8 9 13 14 rings
7 1 2 3 4 5 6 7 rings

> <PUBCHEM_HEAVY_ATOM_COUNT>
15

> <PUBCHEM_ATOM_DEF_STEREO_COUNT>
3

> <PUBCHEM_ATOM_UDEF_STEREO_COUNT>
0

> <PUBCHEM_BOND_DEF_STEREO_COUNT>
0

> <PUBCHEM_BOND_UDEF_STEREO_COUNT>
0

> <PUBCHEM_ISOTOPIC_ATOM_COUNT>
0

> <PUBCHEM_COMPONENT_COUNT>
1

> <PUBCHEM_CACTVS_TAUTO_COUNT>
1

> <PUBCHEM_CONFORMER_ID>
0162A57700000001

> <PUBCHEM_MMFF94_ENERGY>
51.4825

> <PUBCHEM_FEATURE_SELFOVERLAP>
15.293

> <PUBCHEM_SHAPE_FINGERPRINT>
10863032 1 18410007766801835752
12382932 28 18412260606198222787
12423570 1 11868059468678183915
12524768 44 18122906430315463275
13024252 1 14493023779413080490
13132413 78 18270672198737809048
13172582 1 18342170111265683782
14817 1 14328844904953968470
15001771 113 18196946478109145643
15490181 7 17834116724914921645
15775835 57 18191310591821497837
15881359 60 17833230209068042126
16945 1 18196928868600813736
20511035 2 18261955270578895418
21501502 16 18187651357532780731
22344851 341 17260754464950432824
2334 1 18340202015521991179
23388829 49 18412537695775739140
23419403 2 16898422103128539465
241688 4 17544763326247221914
2748010 2 18412539946312234998
5084963 1 17605260977332478173
5255222 1 17762051438564218791
528886 8 18411688881389017923

> <PUBCHEM_SHAPE_MULTIPOLES>
308.69
3.69
2.37
1.23
1.23
0.55
-0.34
0.33
0.56
-0.25
-0.06
-0.35
-0.26
-0.37

> <PUBCHEM_SHAPE_SELFOVERLAP>
659.164

> <PUBCHEM_SHAPE_VOLUME>
174.7

> <PUBCHEM_COORDINATE_TYPE>
2
5
10

$$$$
