14631316
  -OEChem-02172602483D

 49 49  0     1  0  0  0  0  0999 V2000
   -2.7425   -0.4545   -0.6726 O   0  0  0  0  0  0  0  0  0  0  0  0
   -2.0683    2.1176   -0.1790 O   0  0  0  0  0  0  0  0  0  0  0  0
   -4.0634   -2.1927    0.0828 O   0  0  0  0  0  0  0  0  0  0  0  0
   -3.9322    2.4242    1.1509 O   0  0  0  0  0  0  0  0  0  0  0  0
    7.6530    0.7326   -0.4438 N   0  0  0  0  0  0  0  0  0  0  0  0
   -0.3599   -1.6475    0.7716 C   0  0  0  0  0  0  0  0  0  0  0  0
   -1.7387   -1.2573    1.3865 C   0  0  0  0  0  0  0  0  0  0  0  0
   -2.4216   -0.1022    0.6694 C   0  0  1  0  0  0  0  0  0  0  0  0
   -1.5146    1.1268    0.6877 C   0  0  1  0  0  0  0  0  0  0  0  0
    0.4492   -0.4090    0.3182 C   0  0  0  0  0  0  0  0  0  0  0  0
   -0.0688    0.8462    0.3136 C   0  0  0  0  0  0  0  0  0  0  0  0
    0.3866   -2.4331    1.8802 C   0  0  0  0  0  0  0  0  0  0  0  0
   -0.5785   -2.6041   -0.4253 C   0  0  0  0  0  0  0  0  0  0  0  0
    0.7217    2.0974   -0.0048 C   0  0  0  0  0  0  0  0  0  0  0  0
    1.8097   -0.6747   -0.1235 C   0  0  0  0  0  0  0  0  0  0  0  0
    2.8294    0.1329    0.1685 C   0  0  0  0  0  0  0  0  0  0  0  0
   -3.5782   -1.5255   -0.8208 C   0  0  0  0  0  0  0  0  0  0  0  0
   -3.3680    2.4500    0.0655 C   0  0  0  0  0  0  0  0  0  0  0  0
    4.2234   -0.0618   -0.2357 C   0  0  0  0  0  0  0  0  0  0  0  0
   -3.8266   -1.7779   -2.2770 C   0  0  0  0  0  0  0  0  0  0  0  0
   -4.0290    2.8638   -1.2143 C   0  0  0  0  0  0  0  0  0  0  0  0
    4.5537   -1.2836   -1.0577 C   0  0  0  0  0  0  0  0  0  0  0  0
    5.1402    0.8513    0.1426 C   0  0  0  0  0  0  0  0  0  0  0  0
    6.5232    0.7811   -0.1828 C   0  0  0  0  0  0  0  0  0  0  0  0
   -1.5750   -0.9242    2.4231 H   0  0  0  0  0  0  0  0  0  0  0  0
   -2.3580   -2.1511    1.4921 H   0  0  0  0  0  0  0  0  0  0  0  0
   -3.3615    0.1089    1.1921 H   0  0  0  0  0  0  0  0  0  0  0  0
   -1.4881    1.5439    1.7047 H   0  0  0  0  0  0  0  0  0  0  0  0
    1.3326   -2.8528    1.5197 H   0  0  0  0  0  0  0  0  0  0  0  0
    0.6176   -1.7887    2.7366 H   0  0  0  0  0  0  0  0  0  0  0  0
   -0.2192   -3.2712    2.2444 H   0  0  0  0  0  0  0  0  0  0  0  0
    0.3380   -3.1515   -0.6753 H   0  0  0  0  0  0  0  0  0  0  0  0
   -1.3370   -3.3620   -0.2004 H   0  0  0  0  0  0  0  0  0  0  0  0
   -0.8786   -2.0695   -1.3310 H   0  0  0  0  0  0  0  0  0  0  0  0
    1.1879    2.5012    0.8995 H   0  0  0  0  0  0  0  0  0  0  0  0
    0.0827    2.8965   -0.3947 H   0  0  0  0  0  0  0  0  0  0  0  0
    1.4581    1.9578   -0.8003 H   0  0  0  0  0  0  0  0  0  0  0  0
    1.9504   -1.5503   -0.7476 H   0  0  0  0  0  0  0  0  0  0  0  0
    2.6946    0.9623    0.8562 H   0  0  0  0  0  0  0  0  0  0  0  0
   -2.8824   -1.9743   -2.7903 H   0  0  0  0  0  0  0  0  0  0  0  0
   -4.3320   -0.9159   -2.7196 H   0  0  0  0  0  0  0  0  0  0  0  0
   -4.4701   -2.6554   -2.3878 H   0  0  0  0  0  0  0  0  0  0  0  0
   -3.5206    3.7380   -1.6283 H   0  0  0  0  0  0  0  0  0  0  0  0
   -5.0713    3.1286   -1.0147 H   0  0  0  0  0  0  0  0  0  0  0  0
   -4.0114    2.0347   -1.9262 H   0  0  0  0  0  0  0  0  0  0  0  0
    5.6156   -1.3595   -1.3097 H   0  0  0  0  0  0  0  0  0  0  0  0
    4.0049   -1.2699   -2.0059 H   0  0  0  0  0  0  0  0  0  0  0  0
    4.2939   -2.1974   -0.5117 H   0  0  0  0  0  0  0  0  0  0  0  0
    4.8414    1.7130    0.7344 H   0  0  0  0  0  0  0  0  0  0  0  0
  1  8  1  0  0  0  0
  1 17  1  0  0  0  0
  2  9  1  0  0  0  0
  2 18  1  0  0  0  0
  3 17  2  0  0  0  0
  4 18  2  0  0  0  0
  5 24  3  0  0  0  0
  6  7  1  0  0  0  0
  6 10  1  0  0  0  0
  6 12  1  0  0  0  0
  6 13  1  0  0  0  0
  7  8  1  0  0  0  0
  7 25  1  0  0  0  0
  7 26  1  0  0  0  0
  8  9  1  0  0  0  0
  8 27  1  0  0  0  0
  9 11  1  0  0  0  0
  9 28  1  0  0  0  0
 10 11  2  0  0  0  0
 10 15  1  0  0  0  0
 11 14  1  0  0  0  0
 12 29  1  0  0  0  0
 12 30  1  0  0  0  0
 12 31  1  0  0  0  0
 13 32  1  0  0  0  0
 13 33  1  0  0  0  0
 13 34  1  0  0  0  0
 14 35  1  0  0  0  0
 14 36  1  0  0  0  0
 14 37  1  0  0  0  0
 15 16  2  0  0  0  0
 15 38  1  0  0  0  0
 16 19  1  0  0  0  0
 16 39  1  0  0  0  0
 17 20  1  0  0  0  0
 18 21  1  0  0  0  0
 19 22  1  0  0  0  0
 19 23  2  0  0  0  0
 20 40  1  0  0  0  0
 20 41  1  0  0  0  0
 20 42  1  0  0  0  0
 21 43  1  0  0  0  0
 21 44  1  0  0  0  0
 21 45  1  0  0  0  0
 22 46  1  0  0  0  0
 22 47  1  0  0  0  0
 22 48  1  0  0  0  0
 23 24  1  0  0  0  0
 23 49  1  0  0  0  0
M  END
> <PUBCHEM_COMPOUND_CID>
14631316

> <PUBCHEM_CONFORMER_RMSD>
0.8

> <PUBCHEM_CONFORMER_DIVERSEORDER>
1
12
14
6
4
8
13
15
16
9
2
10
7
3
11
5

> <PUBCHEM_MMFF94_PARTIAL_CHARGES>
24
1 -0.43
10 -0.14
11 -0.28
14 0.14
15 -0.15
16 -0.15
17 0.66
18 0.66
19 -0.14
2 -0.43
20 0.06
21 0.06
22 0.14
23 -0.09
24 0.49
3 -0.57
38 0.15
39 0.15
4 -0.57
49 0.15
5 -0.56
6 0.14
8 0.28
9 0.42

> <PUBCHEM_EFFECTIVE_ROTOR_COUNT>
6.8

> <PUBCHEM_PHARMACOPHORE_FEATURES>
6
1 22 hydrophobe
1 3 acceptor
1 4 acceptor
1 5 acceptor
3 6 12 13 hydrophobe
6 6 7 8 9 10 11 rings

> <PUBCHEM_HEAVY_ATOM_COUNT>
24

> <PUBCHEM_ATOM_DEF_STEREO_COUNT>
2

> <PUBCHEM_ATOM_UDEF_STEREO_COUNT>
0

> <PUBCHEM_BOND_DEF_STEREO_COUNT>
2

> <PUBCHEM_BOND_UDEF_STEREO_COUNT>
0

> <PUBCHEM_ISOTOPIC_ATOM_COUNT>
0

> <PUBCHEM_COMPONENT_COUNT>
1

> <PUBCHEM_CACTVS_TAUTO_COUNT>
1

> <PUBCHEM_CONFORMER_ID>
00DF419400000001

> <PUBCHEM_MMFF94_ENERGY>
67.5002

> <PUBCHEM_FEATURE_SELFOVERLAP>
30.446

> <PUBCHEM_SHAPE_FINGERPRINT>
10366900 7 18342459296610758298
10411042 1 17831869314310906994
11101153 10 18194403514210945780
11315181 36 17822013168553164048
12403259 415 17846493760153264240
13140716 1 17902525005300530995
13540713 5 18118666752444889835
14142880 1 18113335289233359733
14251751 93 18413108338337360549
14790565 3 17765441937251229881
15196674 1 18411422778749203354
16752209 62 18336256916378091634
16945 1 18261659459523772331
17780758 139 8142088658679595606
17980427 23 18187937196170151036
19489759 90 18408603691112457728
200 152 17418381324425272458
20871999 31 18410008853760974792
21236236 1 18411419513993842128
23402539 116 18410011040068068628
23419403 2 16414048950550765019
23557571 272 18201445809172085028
23559900 14 18122620824012925696
25147074 1 18191005834228262339
283562 15 18410012156728313675
34934 24 18265050241408715417
350125 39 18410860988284413129
5104073 3 18409451350195305370
5171179 24 17986941036999449425
5283173 99 18411134741009866268
531348 171 18272653424776969606
53917941 68 18187921746961569149
6327066 14 18188485749150998989
633830 44 18187370870293345394
70251023 43 18057589057868741183
9709674 26 18340780290647049670
9981440 41 18260834795664582986

> <PUBCHEM_SHAPE_MULTIPOLES>
465.45
12.18
3.17
1.37
24.22
0.64
-0.19
4.47
-4.19
-4.41
-0.05
-1.33
-0.74
-0.51

> <PUBCHEM_SHAPE_SELFOVERLAP>
949.474

> <PUBCHEM_SHAPE_VOLUME>
265.5

> <PUBCHEM_COORDINATE_TYPE>
2
5
10

$$$$
