101416457
  -OEChem-02172602463D

 89 92  0     1  0  0  0  0  0999 V2000
   -8.3561   -0.1006    1.6891 O   0  0  0  0  0  0  0  0  0  0  0  0
   -0.4252   -2.2416   -3.0568 O   0  0  0  0  0  0  0  0  0  0  0  0
    0.8647   -3.1146   -1.3548 O   0  0  0  0  0  0  0  0  0  0  0  0
    3.3373   -3.4870    0.4537 O   0  0  0  0  0  0  0  0  0  0  0  0
    4.8643   -2.5877    1.9311 O   0  0  0  0  0  0  0  0  0  0  0  0
    6.3825    4.3832    0.6586 O   0  0  0  0  0  0  0  0  0  0  0  0
   -6.2510    0.1570    0.7130 N   0  0  0  0  0  0  0  0  0  0  0  0
   -2.2975    0.0059    0.5454 N   0  0  0  0  0  0  0  0  0  0  0  0
    0.8787    0.4569    0.0825 N   0  0  0  0  0  0  0  0  0  0  0  0
    4.2971    3.4537    0.2095 N   0  0  0  0  0  0  0  0  0  0  0  0
   -6.4178    2.3261   -0.1558 C   0  0  1  0  0  0  0  0  0  0  0  0
   -7.6507    2.0313    0.7346 C   0  0  1  0  0  0  0  0  0  0  0  0
   -5.5469    1.1159    0.0454 C   0  0  0  0  0  0  0  0  0  0  0  0
   -6.8225    2.4882   -1.6213 C   0  0  0  0  0  0  0  0  0  0  0  0
   -7.5135    0.5645    1.1053 C   0  0  0  0  0  0  0  0  0  0  0  0
   -7.6552    2.8742    2.0053 C   0  0  0  0  0  0  0  0  0  0  0  0
   -4.2814    0.9598   -0.3537 C   0  0  0  0  0  0  0  0  0  0  0  0
   -3.4501   -0.1581   -0.1779 C   0  0  0  0  0  0  0  0  0  0  0  0
   -7.7502    3.6720   -1.8091 C   0  0  0  0  0  0  0  0  0  0  0  0
   -3.5121   -1.4739   -0.5804 C   0  0  0  0  0  0  0  0  0  0  0  0
   -2.3558   -2.1237   -0.0821 C   0  0  0  0  0  0  0  0  0  0  0  0
   -1.6226   -1.1851    0.6100 C   0  0  0  0  0  0  0  0  0  0  0  0
   -2.0021   -3.5465   -0.2704 C   0  0  0  0  0  0  0  0  0  0  0  0
   -0.3491   -1.2173    1.3484 C   0  0  0  0  0  0  0  0  0  0  0  0
    0.7299   -0.4734    1.0800 C   0  0  0  0  0  0  0  0  0  0  0  0
   -4.5862   -2.0946   -1.3841 C   0  0  0  0  0  0  0  0  0  0  0  0
    2.0085   -0.4887    1.8017 C   0  0  0  0  0  0  0  0  0  0  0  0
    2.8378    0.4085    1.2166 C   0  0  0  0  0  0  0  0  0  0  0  0
   -1.4358   -3.8378   -1.6715 C   0  0  0  0  0  0  0  0  0  0  0  0
    2.1234    1.0341    0.0967 C   0  0  0  0  0  0  0  0  0  0  0  0
    2.2624   -1.3758    2.9712 C   0  0  0  0  0  0  0  0  0  0  0  0
    2.5224   -2.8198    2.5466 C   0  0  0  0  0  0  0  0  0  0  0  0
    4.2394    0.7628    1.5760 C   0  0  0  0  0  0  0  0  0  0  0  0
    2.5983    1.9711   -0.7316 C   0  0  0  0  0  0  0  0  0  0  0  0
   -0.1858   -3.0445   -1.9777 C   0  0  0  0  0  0  0  0  0  0  0  0
    3.9624    2.4510   -0.5400 C   0  0  0  0  0  0  0  0  0  0  0  0
    5.0871    1.7960   -1.2160 C   0  0  0  0  0  0  0  0  0  0  0  0
    6.1478    2.5009   -0.8043 C   0  0  0  0  0  0  0  0  0  0  0  0
    3.7278   -2.9353    1.6411 C   0  0  0  0  0  0  0  0  0  0  0  0
    5.6625    3.5646    0.1082 C   0  0  0  0  0  0  0  0  0  0  0  0
    7.5890    2.3522   -1.1212 C   0  0  0  0  0  0  0  0  0  0  0  0
    4.9951    0.6328   -2.1280 C   0  0  0  0  0  0  0  0  0  0  0  0
    8.3013    1.4246   -0.1467 C   0  0  0  0  0  0  0  0  0  0  0  0
    0.6725   -1.4213   -3.4701 C   0  0  0  0  0  0  0  0  0  0  0  0
    4.3754   -3.6600   -0.5164 C   0  0  0  0  0  0  0  0  0  0  0  0
   -5.8962    3.2304    0.1827 H   0  0  0  0  0  0  0  0  0  0  0  0
   -8.6049    2.1461    0.2138 H   0  0  0  0  0  0  0  0  0  0  0  0
   -5.9272    2.6439   -2.2361 H   0  0  0  0  0  0  0  0  0  0  0  0
   -7.3101    1.5811   -2.0001 H   0  0  0  0  0  0  0  0  0  0  0  0
   -5.8832   -0.7672    0.9080 H   0  0  0  0  0  0  0  0  0  0  0  0
   -6.7447    2.7202    2.5951 H   0  0  0  0  0  0  0  0  0  0  0  0
   -8.5054    2.6096    2.6433 H   0  0  0  0  0  0  0  0  0  0  0  0
   -7.7319    3.9389    1.7625 H   0  0  0  0  0  0  0  0  0  0  0  0
   -3.8156    1.8158   -0.8411 H   0  0  0  0  0  0  0  0  0  0  0  0
   -7.3265    4.5816   -1.3712 H   0  0  0  0  0  0  0  0  0  0  0  0
   -7.8974    3.8581   -2.8786 H   0  0  0  0  0  0  0  0  0  0  0  0
   -8.7410    3.5103   -1.3777 H   0  0  0  0  0  0  0  0  0  0  0  0
   -1.9918    0.8730    0.9677 H   0  0  0  0  0  0  0  0  0  0  0  0
   -2.8857   -4.1753   -0.1068 H   0  0  0  0  0  0  0  0  0  0  0  0
   -1.2669   -3.8566    0.4828 H   0  0  0  0  0  0  0  0  0  0  0  0
   -0.3219   -1.9512    2.1488 H   0  0  0  0  0  0  0  0  0  0  0  0
   -5.0576   -2.9119   -0.8286 H   0  0  0  0  0  0  0  0  0  0  0  0
   -5.3713   -1.3824   -1.6548 H   0  0  0  0  0  0  0  0  0  0  0  0
   -4.1875   -2.4989   -2.3191 H   0  0  0  0  0  0  0  0  0  0  0  0
   -1.1785   -4.8998   -1.7580 H   0  0  0  0  0  0  0  0  0  0  0  0
   -2.1924   -3.6441   -2.4398 H   0  0  0  0  0  0  0  0  0  0  0  0
    0.1642    0.6874   -0.5909 H   0  0  0  0  0  0  0  0  0  0  0  0
    1.4148   -1.3410    3.6662 H   0  0  0  0  0  0  0  0  0  0  0  0
    3.1198   -1.0141    3.5495 H   0  0  0  0  0  0  0  0  0  0  0  0
    1.6448   -3.2531    2.0540 H   0  0  0  0  0  0  0  0  0  0  0  0
    2.7157   -3.4432    3.4274 H   0  0  0  0  0  0  0  0  0  0  0  0
    4.9644    0.4471    0.8293 H   0  0  0  0  0  0  0  0  0  0  0  0
    4.3469    1.7962    1.9020 H   0  0  0  0  0  0  0  0  0  0  0  0
    4.5418    0.1959    2.4651 H   0  0  0  0  0  0  0  0  0  0  0  0
    2.0133    2.3804   -1.5462 H   0  0  0  0  0  0  0  0  0  0  0  0
    7.7094    1.9591   -2.1377 H   0  0  0  0  0  0  0  0  0  0  0  0
    8.0805    3.3322   -1.1210 H   0  0  0  0  0  0  0  0  0  0  0  0
    4.5447   -0.2255   -1.6206 H   0  0  0  0  0  0  0  0  0  0  0  0
    5.9795    0.3208   -2.4895 H   0  0  0  0  0  0  0  0  0  0  0  0
    4.3822    0.8781   -3.0010 H   0  0  0  0  0  0  0  0  0  0  0  0
    8.2416    1.8056    0.8784 H   0  0  0  0  0  0  0  0  0  0  0  0
    9.3592    1.3368   -0.4136 H   0  0  0  0  0  0  0  0  0  0  0  0
    7.8641    0.4204   -0.1631 H   0  0  0  0  0  0  0  0  0  0  0  0
    0.3522   -0.8356   -4.3358 H   0  0  0  0  0  0  0  0  0  0  0  0
    1.5224   -2.0452   -3.7628 H   0  0  0  0  0  0  0  0  0  0  0  0
    0.9564   -0.7347   -2.6679 H   0  0  0  0  0  0  0  0  0  0  0  0
    3.9271   -4.0738   -1.4236 H   0  0  0  0  0  0  0  0  0  0  0  0
    5.1271   -4.3617   -0.1430 H   0  0  0  0  0  0  0  0  0  0  0  0
    4.8325   -2.6961   -0.7595 H   0  0  0  0  0  0  0  0  0  0  0  0
  1 15  2  0  0  0  0
  2 35  1  0  0  0  0
  2 44  1  0  0  0  0
  3 35  2  0  0  0  0
  4 39  1  0  0  0  0
  4 45  1  0  0  0  0
  5 39  2  0  0  0  0
  6 40  2  0  0  0  0
  7 13  1  0  0  0  0
  7 15  1  0  0  0  0
  7 50  1  0  0  0  0
  8 18  1  0  0  0  0
  8 22  1  0  0  0  0
  8 58  1  0  0  0  0
  9 25  1  0  0  0  0
  9 30  1  0  0  0  0
  9 67  1  0  0  0  0
 10 36  2  0  0  0  0
 10 40  1  0  0  0  0
 11 12  1  0  0  0  0
 11 13  1  0  0  0  0
 11 14  1  0  0  0  0
 11 46  1  0  0  0  0
 12 15  1  0  0  0  0
 12 16  1  0  0  0  0
 12 47  1  0  0  0  0
 13 17  2  0  0  0  0
 14 19  1  0  0  0  0
 14 48  1  0  0  0  0
 14 49  1  0  0  0  0
 16 51  1  0  0  0  0
 16 52  1  0  0  0  0
 16 53  1  0  0  0  0
 17 18  1  0  0  0  0
 17 54  1  0  0  0  0
 18 20  2  0  0  0  0
 19 55  1  0  0  0  0
 19 56  1  0  0  0  0
 19 57  1  0  0  0  0
 20 21  1  0  0  0  0
 20 26  1  0  0  0  0
 21 22  2  0  0  0  0
 21 23  1  0  0  0  0
 22 24  1  0  0  0  0
 23 29  1  0  0  0  0
 23 59  1  0  0  0  0
 23 60  1  0  0  0  0
 24 25  2  0  0  0  0
 24 61  1  0  0  0  0
 25 27  1  0  0  0  0
 26 62  1  0  0  0  0
 26 63  1  0  0  0  0
 26 64  1  0  0  0  0
 27 28  2  0  0  0  0
 27 31  1  0  0  0  0
 28 30  1  0  0  0  0
 28 33  1  0  0  0  0
 29 35  1  0  0  0  0
 29 65  1  0  0  0  0
 29 66  1  0  0  0  0
 30 34  2  3  0  0  0
 31 32  1  0  0  0  0
 31 68  1  0  0  0  0
 31 69  1  0  0  0  0
 32 39  1  0  0  0  0
 32 70  1  0  0  0  0
 32 71  1  0  0  0  0
 33 72  1  0  0  0  0
 33 73  1  0  0  0  0
 33 74  1  0  0  0  0
 34 36  1  0  0  0  0
 34 75  1  0  0  0  0
 36 37  1  0  0  0  0
 37 38  2  0  0  0  0
 37 42  1  0  0  0  0
 38 40  1  0  0  0  0
 38 41  1  0  0  0  0
 41 43  1  0  0  0  0
 41 76  1  0  0  0  0
 41 77  1  0  0  0  0
 42 78  1  0  0  0  0
 42 79  1  0  0  0  0
 42 80  1  0  0  0  0
 43 81  1  0  0  0  0
 43 82  1  0  0  0  0
 43 83  1  0  0  0  0
 44 84  1  0  0  0  0
 44 85  1  0  0  0  0
 44 86  1  0  0  0  0
 45 87  1  0  0  0  0
 45 88  1  0  0  0  0
 45 89  1  0  0  0  0
M  END
> <PUBCHEM_COMPOUND_CID>
101416457

> <PUBCHEM_CONFORMER_RMSD>
1.4

> <PUBCHEM_CONFORMER_DIVERSEORDER>
1
59
77
36
109
91
142
68
17
124
40
89
57
27
25
116
134
184
11
174
160
138
165
104
70
172
128
139
26
213
65
4
74
92
111
42
5
188
20
45
180
119
114
159
146
205
18
217
115
214
135
81
103
37
162
76
218
168
186
211
147
85
43
152
208
52
2
153
163
167
96
216
50
100
55
204
39
132
66
83
207
34
199
62
210
190
106
110
97
48
24
98
54
140
35
108
166
141
30
150
15
10
122
201
182
130
23
120
79
56
32
19
95
38
107
175
60
212
121
129
192
21
194
8
75
161
44
46
33
151
137
185
131
144
198
215
145
9
136
209
158
67
117
102
29
155
88
202
195
200
157
71
126
177
69
170
12
149
53
72
112
22
181
73
7
127
113
31
154
99
82
133
63
148
183
41
171
80
176
123
164
84
6
47
61
203
105
179
118
58
191
187
169
193
49
178
93
206
51
87
86
143
196
197
101
64
13
173
189
78
125
90
156
94
28
16
14
3

> <PUBCHEM_MMFF94_PARTIAL_CHARGES>
47
1 -0.57
10 -0.66
11 0.14
12 0.06
13 -0.03
15 0.57
17 -0.11
18 -0.2
2 -0.43
20 -0.18
21 -0.18
22 -0.2
23 0.18
24 -0.11
25 0.1
26 0.18
27 -0.14
28 -0.14
29 0.06
3 -0.57
30 0.1
31 0.14
32 0.06
33 0.14
34 -0.14
35 0.66
36 0.42
37 -0.12
38 -0.12
39 0.66
4 -0.43
40 0.77
41 0.14
42 0.14
44 0.28
45 0.28
5 -0.57
50 0.37
54 0.15
58 0.27
6 -0.57
61 0.15
67 0.4
7 -0.54
75 0.15
8 0.03
9 -0.6

> <PUBCHEM_EFFECTIVE_ROTOR_COUNT>
13.6

> <PUBCHEM_PHARMACOPHORE_FEATURES>
17
1 1 acceptor
1 10 acceptor
1 10 donor
1 19 hydrophobe
1 3 acceptor
1 43 hydrophobe
1 5 acceptor
1 6 acceptor
1 7 donor
1 8 cation
1 8 donor
1 9 cation
1 9 donor
5 10 36 37 38 40 rings
5 7 11 12 13 15 rings
5 8 18 20 21 22 rings
5 9 25 27 28 30 rings

> <PUBCHEM_HEAVY_ATOM_COUNT>
45

> <PUBCHEM_ATOM_DEF_STEREO_COUNT>
0

> <PUBCHEM_ATOM_UDEF_STEREO_COUNT>
2

> <PUBCHEM_BOND_DEF_STEREO_COUNT>
2

> <PUBCHEM_BOND_UDEF_STEREO_COUNT>
1

> <PUBCHEM_ISOTOPIC_ATOM_COUNT>
0

> <PUBCHEM_COMPONENT_COUNT>
1

> <PUBCHEM_CACTVS_TAUTO_COUNT>
1001

> <PUBCHEM_CONFORMER_ID>
060B7E0900000001

> <PUBCHEM_MMFF94_ENERGY>
108.9133

> <PUBCHEM_FEATURE_SELFOVERLAP>
86.318

> <PUBCHEM_SHAPE_FINGERPRINT>
10554248 39 18270666572921092589
10721379 63 18335140852621655282
11135926 11 18187354467612769148
1200032 147 18411149029928028651
13726171 33 18128826411520299009
14118638 360 18187918534864316167
14747281 78 18270418095872323943
15324884 4 16413493765619081827
15439362 3 18342182141458816502
15781502 589 18337952290204598300
19309040 13 18262238927657533138
20505436 4 18335701684338820891
21781055 127 17560811974207736259
27425 322 17970646287792085524
4112364 45 18408321077299734558
4144715 1 17894640232236447041
4173938 306 17132113580998149012
4516262 110 18114174280887723157
9896288 288 18046069521119668691

> <PUBCHEM_SHAPE_MULTIPOLES>
870.94
22.63
5.65
2.59
23.46
0.67
-0.55
-28.63
1.74
-4.05
-1.26
-0.3
1.66
-2.26

> <PUBCHEM_SHAPE_SELFOVERLAP>
1857.637

> <PUBCHEM_SHAPE_VOLUME>
490.5

> <PUBCHEM_COORDINATE_TYPE>
2
5
10

$$$$
