68279
  -OEChem-02172602313D

 32 33  0     0  0  0  0  0  0999 V2000
    0.6778    0.0004   -0.2366 N   0  0  0  0  0  0  0  0  0  0  0  0
   -0.6777    0.0003    0.2366 N   0  0  0  0  0  0  0  0  0  0  0  0
    1.3422   -1.2068    0.2697 C   0  0  0  0  0  0  0  0  0  0  0  0
    1.3503    1.2197    0.2320 C   0  0  0  0  0  0  0  0  0  0  0  0
   -1.3422   -1.2067   -0.2697 C   0  0  0  0  0  0  0  0  0  0  0  0
   -1.3503    1.2197   -0.2319 C   0  0  0  0  0  0  0  0  0  0  0  0
    2.7971   -1.2600   -0.2015 C   0  0  0  0  0  0  0  0  0  0  0  0
    2.8054    1.2482   -0.2412 C   0  0  0  0  0  0  0  0  0  0  0  0
   -2.7972   -1.2600    0.2015 C   0  0  0  0  0  0  0  0  0  0  0  0
   -2.8053    1.2483    0.2412 C   0  0  0  0  0  0  0  0  0  0  0  0
    3.5581   -0.0016    0.2038 C   0  0  0  0  0  0  0  0  0  0  0  0
   -3.5581   -0.0016   -0.2038 C   0  0  0  0  0  0  0  0  0  0  0  0
    0.9265   -2.1337   -0.1332 H   0  0  0  0  0  0  0  0  0  0  0  0
    1.3042   -1.2619    1.3662 H   0  0  0  0  0  0  0  0  0  0  0  0
    1.3121    1.3101    1.3259 H   0  0  0  0  0  0  0  0  0  0  0  0
    0.9310    2.1314   -0.2031 H   0  0  0  0  0  0  0  0  0  0  0  0
   -0.9265   -2.1337    0.1332 H   0  0  0  0  0  0  0  0  0  0  0  0
   -1.3043   -1.2618   -1.3662 H   0  0  0  0  0  0  0  0  0  0  0  0
   -1.3121    1.3100   -1.3260 H   0  0  0  0  0  0  0  0  0  0  0  0
   -0.9310    2.1313    0.2031 H   0  0  0  0  0  0  0  0  0  0  0  0
    2.8283   -1.3681   -1.2934 H   0  0  0  0  0  0  0  0  0  0  0  0
    3.2931   -2.1414    0.2210 H   0  0  0  0  0  0  0  0  0  0  0  0
    3.3070    2.1396    0.1527 H   0  0  0  0  0  0  0  0  0  0  0  0
    2.8365    1.3211   -1.3360 H   0  0  0  0  0  0  0  0  0  0  0  0
   -2.8284   -1.3681    1.2935 H   0  0  0  0  0  0  0  0  0  0  0  0
   -3.2931   -2.1415   -0.2211 H   0  0  0  0  0  0  0  0  0  0  0  0
   -3.3069    2.1397   -0.1527 H   0  0  0  0  0  0  0  0  0  0  0  0
   -2.8366    1.3212    1.3360 H   0  0  0  0  0  0  0  0  0  0  0  0
    3.6810    0.0153    1.2937 H   0  0  0  0  0  0  0  0  0  0  0  0
    4.5624   -0.0118   -0.2337 H   0  0  0  0  0  0  0  0  0  0  0  0
   -3.6811    0.0153   -1.2938 H   0  0  0  0  0  0  0  0  0  0  0  0
   -4.5624   -0.0117    0.2336 H   0  0  0  0  0  0  0  0  0  0  0  0
  1  2  1  0  0  0  0
  1  3  1  0  0  0  0
  1  4  1  0  0  0  0
  2  5  1  0  0  0  0
  2  6  1  0  0  0  0
  3  7  1  0  0  0  0
  3 13  1  0  0  0  0
  3 14  1  0  0  0  0
  4  8  1  0  0  0  0
  4 15  1  0  0  0  0
  4 16  1  0  0  0  0
  5  9  1  0  0  0  0
  5 17  1  0  0  0  0
  5 18  1  0  0  0  0
  6 10  1  0  0  0  0
  6 19  1  0  0  0  0
  6 20  1  0  0  0  0
  7 11  1  0  0  0  0
  7 21  1  0  0  0  0
  7 22  1  0  0  0  0
  8 11  1  0  0  0  0
  8 23  1  0  0  0  0
  8 24  1  0  0  0  0
  9 12  1  0  0  0  0
  9 25  1  0  0  0  0
  9 26  1  0  0  0  0
 10 12  1  0  0  0  0
 10 27  1  0  0  0  0
 10 28  1  0  0  0  0
 11 29  1  0  0  0  0
 11 30  1  0  0  0  0
 12 31  1  0  0  0  0
 12 32  1  0  0  0  0
M  END
> <PUBCHEM_COMPOUND_CID>
68279

> <PUBCHEM_CONFORMER_RMSD>
0.6

> <PUBCHEM_CONFORMER_DIVERSEORDER>
1
5
3
4
2

> <PUBCHEM_MMFF94_PARTIAL_CHARGES>
6
1 -0.54
2 -0.54
3 0.27
4 0.27
5 0.27
6 0.27

> <PUBCHEM_EFFECTIVE_ROTOR_COUNT>
3.4

> <PUBCHEM_PHARMACOPHORE_FEATURES>
2
6 1 3 4 7 8 11 rings
6 2 5 6 9 10 12 rings

> <PUBCHEM_HEAVY_ATOM_COUNT>
12

> <PUBCHEM_ATOM_DEF_STEREO_COUNT>
0

> <PUBCHEM_ATOM_UDEF_STEREO_COUNT>
0

> <PUBCHEM_BOND_DEF_STEREO_COUNT>
0

> <PUBCHEM_BOND_UDEF_STEREO_COUNT>
0

> <PUBCHEM_ISOTOPIC_ATOM_COUNT>
0

> <PUBCHEM_COMPONENT_COUNT>
1

> <PUBCHEM_CACTVS_TAUTO_COUNT>
1

> <PUBCHEM_CONFORMER_ID>
00010AB700000001

> <PUBCHEM_MMFF94_ENERGY>
13.3419

> <PUBCHEM_FEATURE_SELFOVERLAP>
10.149

> <PUBCHEM_SHAPE_FINGERPRINT>
10608611 8 18410570690911996320
11132069 177 18410287021317455552
11471102 20 18410569582915506924
12032990 46 18410580582221380195
12162725 195 18410573985151490117
12897270 3 18410009978646637541
12932764 1 18411144640276214468
13380535 21 18410586079779402150
13380535 76 18410854364911930055
14144814 61 18411419496713590393
14325111 11 18410856563934925761
15219456 202 18411982463846874255
15442244 35 18195246611779145290
15536298 74 18343021086511448630
15775835 57 18410580586516334497
16945 1 18410575084663078916
17844478 74 18113625573066804665
18186145 218 18186801352986509126
19973954 147 18410857663446624993
200 152 18131057252078078895
20201158 50 18411699872189456514
20528008 55 18410849971550334717
20645477 70 18411978027336101079
20871998 184 18201442527580097183
21501502 16 18410575088958065701
21501925 9 18337660967241742274
23402539 116 18201429277885135141
23402655 69 18341325609279595293
23463225 33 18409166593314843070
23552423 10 18333450962524502903
2748010 2 18410573989456968109
3248919 1 18410846668330119875
5104073 3 18410855460138718792
57096353 35 18338516477028694005
57812782 119 18410852165888317221
6333449 129 18411134740740548653
69090 78 18341888589492803887
7364860 26 18343864420498775400
8809292 202 18260834816601186330
93112 12 18410575080373412502

> <PUBCHEM_SHAPE_MULTIPOLES>
236.99
6.22
1.66
0.66
0
0
0
0
0
0
0
0
0
-0.03

> <PUBCHEM_SHAPE_SELFOVERLAP>
468.597

> <PUBCHEM_SHAPE_VOLUME>
140.5

> <PUBCHEM_COORDINATE_TYPE>
2
5
10

$$$$
