12301826
  -OEChem-02172602523D

 55 59  0     0  0  0  0  0  0999 V2000
    4.6211    0.3262   -0.8194 S   0  0  0  0  0  0  0  0  0  0  0  0
    5.1238   -0.4351   -1.9548 O   0  0  0  0  0  0  0  0  0  0  0  0
    5.5723    0.9204    0.1094 O   0  0  0  0  0  0  0  0  0  0  0  0
   -1.6845    3.6225    0.5820 O   0  0  0  0  0  0  0  0  0  0  0  0
   -4.6564   -1.8261    1.0984 O   0  0  0  0  0  0  0  0  0  0  0  0
    3.5558    1.5409   -1.4148 N   0  0  0  0  0  0  0  0  0  0  0  0
   -1.4656    1.5964   -0.5195 N   0  0  0  0  0  0  0  0  0  0  0  0
   -2.8259    1.4715   -0.6749 N   0  0  0  0  0  0  0  0  0  0  0  0
    1.7947   -2.3215    0.2693 C   0  0  0  0  0  0  0  0  0  0  0  0
    1.8796   -2.3499    1.6361 C   0  0  0  0  0  0  0  0  0  0  0  0
    0.8814   -3.3023    2.2245 C   0  0  0  0  0  0  0  0  0  0  0  0
    0.1471   -3.8707    0.9793 C   0  0  0  0  0  0  0  0  0  0  0  0
    0.8169   -3.1750   -0.1683 C   0  0  0  0  0  0  0  0  0  0  0  0
    2.5933   -1.5327   -0.5616 C   0  0  0  0  0  0  0  0  0  0  0  0
    3.5442   -0.7195    0.0824 C   0  0  0  0  0  0  0  0  0  0  0  0
    2.8148   -1.5504    2.2701 C   0  0  0  0  0  0  0  0  0  0  0  0
    0.5783   -3.2865   -1.5271 C   0  0  0  0  0  0  0  0  0  0  0  0
    3.6479   -0.7339    1.4871 C   0  0  0  0  0  0  0  0  0  0  0  0
    2.3513   -1.6458   -1.9432 C   0  0  0  0  0  0  0  0  0  0  0  0
    1.3501   -2.5177   -2.4142 C   0  0  0  0  0  0  0  0  0  0  0  0
    2.6991    2.2126   -0.4752 C   0  0  0  0  0  0  0  0  0  0  0  0
    1.3199    2.1400   -0.6286 C   0  0  0  0  0  0  0  0  0  0  0  0
    3.2601    2.9252    0.5778 C   0  0  0  0  0  0  0  0  0  0  0  0
    0.4892    2.7900    0.2843 C   0  0  0  0  0  0  0  0  0  0  0  0
    2.4295    3.5751    1.4908 C   0  0  0  0  0  0  0  0  0  0  0  0
    1.0442    3.5075    1.3440 C   0  0  0  0  0  0  0  0  0  0  0  0
   -0.9553    2.7200    0.1317 C   0  0  0  0  0  0  0  0  0  0  0  0
   -4.8234    0.2007   -0.1870 C   0  0  0  0  0  0  0  0  0  0  0  0
   -3.5095    0.4341   -0.1335 C   0  0  0  0  0  0  0  0  0  0  0  0
   -5.3595   -1.0243    0.4939 C   0  0  0  0  0  0  0  0  0  0  0  0
   -5.7456    1.0821   -0.8741 C   0  0  0  0  0  0  0  0  0  0  0  0
   -6.8315   -1.2324    0.4007 C   0  0  0  0  0  0  0  0  0  0  0  0
   -7.0580    0.8148   -0.9057 C   0  0  0  0  0  0  0  0  0  0  0  0
   -7.5992   -0.3561   -0.2598 C   0  0  0  0  0  0  0  0  0  0  0  0
    1.3802   -4.1027    2.7807 H   0  0  0  0  0  0  0  0  0  0  0  0
    0.1806   -2.7812    2.8848 H   0  0  0  0  0  0  0  0  0  0  0  0
    0.2766   -4.9557    0.9131 H   0  0  0  0  0  0  0  0  0  0  0  0
   -0.9209   -3.6322    1.0155 H   0  0  0  0  0  0  0  0  0  0  0  0
    2.9072   -1.5487    3.3512 H   0  0  0  0  0  0  0  0  0  0  0  0
   -0.1898   -3.9520   -1.9070 H   0  0  0  0  0  0  0  0  0  0  0  0
    4.3726   -0.1115    2.0054 H   0  0  0  0  0  0  0  0  0  0  0  0
    2.8951   -1.0671   -2.6810 H   0  0  0  0  0  0  0  0  0  0  0  0
    1.1681   -2.5932   -3.4834 H   0  0  0  0  0  0  0  0  0  0  0  0
    3.1330    1.3633   -2.3352 H   0  0  0  0  0  0  0  0  0  0  0  0
    0.9185    1.5941   -1.4779 H   0  0  0  0  0  0  0  0  0  0  0  0
    4.3344    3.0181    0.6983 H   0  0  0  0  0  0  0  0  0  0  0  0
    2.8618    4.1383    2.3128 H   0  0  0  0  0  0  0  0  0  0  0  0
    0.4146    4.0183    2.0679 H   0  0  0  0  0  0  0  0  0  0  0  0
   -0.9177    0.8172   -0.8674 H   0  0  0  0  0  0  0  0  0  0  0  0
   -3.2957    2.1880   -1.2133 H   0  0  0  0  0  0  0  0  0  0  0  0
   -2.8520   -0.2505    0.3959 H   0  0  0  0  0  0  0  0  0  0  0  0
   -5.3842    1.9742   -1.3735 H   0  0  0  0  0  0  0  0  0  0  0  0
   -7.2537   -2.1076    0.8808 H   0  0  0  0  0  0  0  0  0  0  0  0
   -7.7473    1.4756   -1.4200 H   0  0  0  0  0  0  0  0  0  0  0  0
   -8.6711   -0.5108   -0.3257 H   0  0  0  0  0  0  0  0  0  0  0  0
  1  2  2  0  0  0  0
  1  3  2  0  0  0  0
  1  6  1  0  0  0  0
  1 15  1  0  0  0  0
  4 27  2  0  0  0  0
  5 30  2  0  0  0  0
  6 21  1  0  0  0  0
  6 44  1  0  0  0  0
  7  8  1  0  0  0  0
  7 27  1  0  0  0  0
  7 49  1  0  0  0  0
  8 29  1  0  0  0  0
  8 50  1  0  0  0  0
  9 10  1  0  0  0  0
  9 13  2  0  0  0  0
  9 14  1  0  0  0  0
 10 11  1  0  0  0  0
 10 16  2  0  0  0  0
 11 12  1  0  0  0  0
 11 35  1  0  0  0  0
 11 36  1  0  0  0  0
 12 13  1  0  0  0  0
 12 37  1  0  0  0  0
 12 38  1  0  0  0  0
 13 17  1  0  0  0  0
 14 15  1  0  0  0  0
 14 19  2  0  0  0  0
 15 18  2  0  0  0  0
 16 18  1  0  0  0  0
 16 39  1  0  0  0  0
 17 20  2  0  0  0  0
 17 40  1  0  0  0  0
 18 41  1  0  0  0  0
 19 20  1  0  0  0  0
 19 42  1  0  0  0  0
 20 43  1  0  0  0  0
 21 22  1  0  0  0  0
 21 23  2  0  0  0  0
 22 24  2  0  0  0  0
 22 45  1  0  0  0  0
 23 25  1  0  0  0  0
 23 46  1  0  0  0  0
 24 26  1  0  0  0  0
 24 27  1  0  0  0  0
 25 26  2  0  0  0  0
 25 47  1  0  0  0  0
 26 48  1  0  0  0  0
 28 29  2  0  0  0  0
 28 30  1  0  0  0  0
 28 31  1  0  0  0  0
 29 51  1  0  0  0  0
 30 32  1  0  0  0  0
 31 33  2  0  0  0  0
 31 52  1  0  0  0  0
 32 34  2  0  0  0  0
 32 53  1  0  0  0  0
 33 34  1  0  0  0  0
 33 54  1  0  0  0  0
 34 55  1  0  0  0  0
M  END
> <PUBCHEM_COMPOUND_CID>
12301826

> <PUBCHEM_CONFORMER_RMSD>
1.4

> <PUBCHEM_CONFORMER_DIVERSEORDER>
1
14
201
144
162
56
92
40
133
5
54
10
39
204
81
95
23
51
84
182
86
48
155
165
151
27
173
176
50
122
79
187
168
88
12
143
137
163
114
154
177
100
52
41
74
174
127
29
141
30
210
22
158
130
98
124
60
26
203
91
208
25
116
142
147
217
209
93
42
180
35
218
72
179
97
106
87
61
138
82
16
70
59
109
53
213
47
111
8
96
89
9
199
45
191
126
83
140
99
112
55
37
216
85
102
169
129
175
63
103
197
4
160
171
115
200
6
43
68
128
136
66
148
207
178
57
44
15
167
90
206
156
211
172
76
20
104
69
192
107
184
188
78
185
121
120
24
157
7
189
49
73
32
77
194
215
131
152
36
21
28
58
153
33
34
164
139
64
62
71
134
2
105
123
31
145
110
195
135
170
113
75
17
119
19
205
80
146
193
38
101
108
183
212
67
196
198
161
214
125
46
65
202
13
3
166
117
186
159
118
181
94
18
149
11
132
190
150

> <PUBCHEM_MMFF94_PARTIAL_CHARGES>
49
1 1.45
10 -0.14
11 0.14
12 0.14
13 -0.14
15 -0.01
16 -0.15
17 -0.15
18 -0.15
19 -0.15
2 -0.65
20 -0.15
21 0.2
22 -0.15
23 -0.15
24 0.09
25 -0.15
26 -0.15
27 0.54
28 0.01
29 -0.05
3 -0.65
30 0.54
31 -0.15
32 -0.14
33 -0.15
34 -0.15
39 0.15
4 -0.57
40 0.15
41 0.15
42 0.15
43 0.15
44 0.42
45 0.15
46 0.15
47 0.15
48 0.15
49 0.37
5 -0.57
50 0.4
51 0.15
52 0.15
53 0.15
54 0.15
55 0.15
6 -0.76
7 -0.41
8 -0.52

> <PUBCHEM_EFFECTIVE_ROTOR_COUNT>
7.4

> <PUBCHEM_PHARMACOPHORE_FEATURES>
12
1 2 acceptor
1 3 acceptor
1 4 acceptor
1 5 acceptor
1 6 donor
1 7 donor
1 8 donor
5 9 10 11 12 13 rings
6 21 22 23 24 25 26 rings
6 28 30 31 32 33 34 rings
6 9 10 14 15 16 18 rings
6 9 13 14 17 19 20 rings

> <PUBCHEM_HEAVY_ATOM_COUNT>
34

> <PUBCHEM_ATOM_DEF_STEREO_COUNT>
0

> <PUBCHEM_ATOM_UDEF_STEREO_COUNT>
0

> <PUBCHEM_BOND_DEF_STEREO_COUNT>
1

> <PUBCHEM_BOND_UDEF_STEREO_COUNT>
0

> <PUBCHEM_ISOTOPIC_ATOM_COUNT>
0

> <PUBCHEM_COMPONENT_COUNT>
1

> <PUBCHEM_CACTVS_TAUTO_COUNT>
6

> <PUBCHEM_CONFORMER_ID>
00BBB60200000001

> <PUBCHEM_MMFF94_ENERGY>
99.4113

> <PUBCHEM_FEATURE_SELFOVERLAP>
62.655

> <PUBCHEM_SHAPE_FINGERPRINT>
10316853 100 18336547225954700441
10864689 126 18410015412102481807
11014199 57 17618782462099101082
11421498 54 17417820499821033376
12128747 34 18265046947860247325
131258 38 17604691344764165794
13402501 40 18335424603487660663
14068700 675 17535457124745437594
14725015 67 18410287004538630208
15001296 14 18198892803196391215
15183329 4 18410575051395974365
15264996 19 17825682311115584374
15927050 60 17838331135789046028
16067689 134 17907586822788133441
19301679 30 18335139796455767721
19315092 285 16734936827528321082
1979834 28 18060129934360568243
21133410 62 18188191187740792375
21133410 90 17129871762113194424
21197605 99 18124599940452971071
21703447 108 18201428199522465889
3298306 158 18264490762163019321
394071 54 18271535230315268859
404807 78 17459207329072616035
437795 51 18340210794530304437
463206 1 18340203119819118837
484989 97 18261689171891183042
5309563 4 18411982473007079689
86090 222 18337396032031185793

> <PUBCHEM_SHAPE_MULTIPOLES>
665.13
14.12
5.35
1.91
33.83
0.71
-0.01
0.78
2.22
-3.56
-1.63
-2.06
-1.4
0.9

> <PUBCHEM_SHAPE_SELFOVERLAP>
1467.954

> <PUBCHEM_SHAPE_VOLUME>
356.8

> <PUBCHEM_COORDINATE_TYPE>
2
5
10

$$$$
