181121
  -OEChem-02172602293D

 49 53  0     1  0  0  0  0  0999 V2000
    0.1286    3.0569   -1.3049 O   0  0  0  0  0  0  0  0  0  0  0  0
    4.0984    1.6661    0.0797 O   0  0  0  0  0  0  0  0  0  0  0  0
   -5.2592    1.6714    0.4866 O   0  0  0  0  0  0  0  0  0  0  0  0
   -6.2201   -0.4487   -0.1308 O   0  0  0  0  0  0  0  0  0  0  0  0
    5.7828   -0.5081    0.0527 O   0  0  0  0  0  0  0  0  0  0  0  0
   -0.0316    1.0730    0.6498 N   0  0  1  0  0  0  0  0  0  0  0  0
    1.2519    1.4097    0.0098 C   0  0  1  0  0  0  0  0  0  0  0  0
   -0.6584   -0.1189    0.2136 C   0  0  0  0  0  0  0  0  0  0  0  0
    2.1822    0.2141   -0.0066 C   0  0  0  0  0  0  0  0  0  0  0  0
    0.1608   -1.2322   -0.1321 C   0  0  0  0  0  0  0  0  0  0  0  0
    1.6359   -1.0866   -0.0774 C   0  0  0  0  0  0  0  0  0  0  0  0
   -2.0836   -0.2064    0.1256 C   0  0  0  0  0  0  0  0  0  0  0  0
    1.0100    1.9558   -1.4005 C   0  0  0  0  0  0  0  0  0  0  0  0
    3.5717    0.4078    0.0304 C   0  0  0  0  0  0  0  0  0  0  0  0
   -2.6741   -1.4450   -0.2649 C   0  0  0  0  0  0  0  0  0  0  0  0
   -0.1414    1.3353    2.0856 C   0  0  0  0  0  0  0  0  0  0  0  0
   -0.4647   -2.4242   -0.5234 C   0  0  0  0  0  0  0  0  0  0  0  0
    2.5291   -2.1719   -0.0827 C   0  0  0  0  0  0  0  0  0  0  0  0
   -1.8541   -2.5318   -0.5753 C   0  0  0  0  0  0  0  0  0  0  0  0
   -2.9488    0.8882    0.3752 C   0  0  0  0  0  0  0  0  0  0  0  0
    4.4331   -0.6842    0.0144 C   0  0  0  0  0  0  0  0  0  0  0  0
   -4.0712   -1.5821   -0.3575 C   0  0  0  0  0  0  0  0  0  0  0  0
    3.9121   -1.9722   -0.0384 C   0  0  0  0  0  0  0  0  0  0  0  0
   -4.3147    0.7159    0.2703 C   0  0  0  0  0  0  0  0  0  0  0  0
   -4.8614   -0.4885   -0.0822 C   0  0  0  0  0  0  0  0  0  0  0  0
   -6.4666    0.9247    0.2334 C   0  0  0  0  0  0  0  0  0  0  0  0
    4.9581    2.0484   -0.9906 C   0  0  0  0  0  0  0  0  0  0  0  0
    6.3954   -0.4666    1.3403 C   0  0  0  0  0  0  0  0  0  0  0  0
    1.7032    2.2166    0.6025 H   0  0  0  0  0  0  0  0  0  0  0  0
    0.5668    1.2127   -2.0727 H   0  0  0  0  0  0  0  0  0  0  0  0
    1.9426    2.3007   -1.8583 H   0  0  0  0  0  0  0  0  0  0  0  0
    0.5247    0.6737    2.6510 H   0  0  0  0  0  0  0  0  0  0  0  0
   -1.1580    1.1970    2.4663 H   0  0  0  0  0  0  0  0  0  0  0  0
    0.1430    2.3710    2.3011 H   0  0  0  0  0  0  0  0  0  0  0  0
    0.1127   -3.2996   -0.8086 H   0  0  0  0  0  0  0  0  0  0  0  0
    2.1727   -3.1980   -0.1120 H   0  0  0  0  0  0  0  0  0  0  0  0
   -2.2871   -3.4820   -0.8834 H   0  0  0  0  0  0  0  0  0  0  0  0
   -2.5631    1.8680    0.6418 H   0  0  0  0  0  0  0  0  0  0  0  0
   -4.5285   -2.5237   -0.6488 H   0  0  0  0  0  0  0  0  0  0  0  0
    4.5758   -2.8330   -0.0456 H   0  0  0  0  0  0  0  0  0  0  0  0
   -0.7019    2.7373   -0.9133 H   0  0  0  0  0  0  0  0  0  0  0  0
   -7.0160    1.4108   -0.5810 H   0  0  0  0  0  0  0  0  0  0  0  0
   -7.0871    0.9427    1.1368 H   0  0  0  0  0  0  0  0  0  0  0  0
    6.0035    1.9314   -0.6922 H   0  0  0  0  0  0  0  0  0  0  0  0
    4.7841    3.1083   -1.1986 H   0  0  0  0  0  0  0  0  0  0  0  0
    4.7575    1.4852   -1.9089 H   0  0  0  0  0  0  0  0  0  0  0  0
    7.4678   -0.3029    1.2039 H   0  0  0  0  0  0  0  0  0  0  0  0
    6.2497   -1.4166    1.8642 H   0  0  0  0  0  0  0  0  0  0  0  0
    5.9885    0.3572    1.9353 H   0  0  0  0  0  0  0  0  0  0  0  0
  1 13  1  0  0  0  0
  1 41  1  0  0  0  0
  2 14  1  0  0  0  0
  2 27  1  0  0  0  0
  3 24  1  0  0  0  0
  3 26  1  0  0  0  0
  4 25  1  0  0  0  0
  4 26  1  0  0  0  0
  5 21  1  0  0  0  0
  5 28  1  0  0  0  0
  6  7  1  0  0  0  0
  6  8  1  0  0  0  0
  6 16  1  0  0  0  0
  7  9  1  0  0  0  0
  7 13  1  0  0  0  0
  7 29  1  0  0  0  0
  8 10  2  0  0  0  0
  8 12  1  0  0  0  0
  9 11  2  0  0  0  0
  9 14  1  0  0  0  0
 10 11  1  0  0  0  0
 10 17  1  0  0  0  0
 11 18  1  0  0  0  0
 12 15  1  0  0  0  0
 12 20  2  0  0  0  0
 13 30  1  0  0  0  0
 13 31  1  0  0  0  0
 14 21  2  0  0  0  0
 15 19  1  0  0  0  0
 15 22  2  0  0  0  0
 16 32  1  0  0  0  0
 16 33  1  0  0  0  0
 16 34  1  0  0  0  0
 17 19  2  0  0  0  0
 17 35  1  0  0  0  0
 18 23  2  0  0  0  0
 18 36  1  0  0  0  0
 19 37  1  0  0  0  0
 20 24  1  0  0  0  0
 20 38  1  0  0  0  0
 21 23  1  0  0  0  0
 22 25  1  0  0  0  0
 22 39  1  0  0  0  0
 23 40  1  0  0  0  0
 24 25  2  0  0  0  0
 26 42  1  0  0  0  0
 26 43  1  0  0  0  0
 27 44  1  0  0  0  0
 27 45  1  0  0  0  0
 27 46  1  0  0  0  0
 28 47  1  0  0  0  0
 28 48  1  0  0  0  0
 28 49  1  0  0  0  0
M  END
> <PUBCHEM_COMPOUND_CID>
181121

> <PUBCHEM_CONFORMER_RMSD>
0.8

> <PUBCHEM_CONFORMER_DIVERSEORDER>
1
2
3

> <PUBCHEM_MMFF94_PARTIAL_CHARGES>
31
1 -0.68
13 0.28
14 0.08
16 0.37
17 -0.15
18 -0.15
19 -0.15
2 -0.36
20 -0.15
21 0.08
22 -0.15
23 -0.15
24 0.08
25 0.08
26 0.56
27 0.28
28 0.28
3 -0.36
35 0.15
36 0.15
37 0.15
38 0.15
39 0.15
4 -0.36
40 0.15
41 0.4
5 -0.36
6 -0.84
7 0.51
8 0.1
9 -0.14

> <PUBCHEM_EFFECTIVE_ROTOR_COUNT>
4

> <PUBCHEM_PHARMACOPHORE_FEATURES>
12
1 1 acceptor
1 1 donor
1 2 acceptor
1 3 acceptor
1 4 acceptor
1 5 acceptor
1 6 cation
5 3 4 24 25 26 rings
6 12 15 20 22 24 25 rings
6 6 7 8 9 10 11 rings
6 8 10 12 15 17 19 rings
6 9 11 14 18 21 23 rings

> <PUBCHEM_HEAVY_ATOM_COUNT>
28

> <PUBCHEM_ATOM_DEF_STEREO_COUNT>
0

> <PUBCHEM_ATOM_UDEF_STEREO_COUNT>
1

> <PUBCHEM_BOND_DEF_STEREO_COUNT>
0

> <PUBCHEM_BOND_UDEF_STEREO_COUNT>
0

> <PUBCHEM_ISOTOPIC_ATOM_COUNT>
0

> <PUBCHEM_COMPONENT_COUNT>
1

> <PUBCHEM_CACTVS_TAUTO_COUNT>
1

> <PUBCHEM_CONFORMER_ID>
0002C38100000001

> <PUBCHEM_MMFF94_ENERGY>
126.942

> <PUBCHEM_FEATURE_SELFOVERLAP>
61.126

> <PUBCHEM_SHAPE_FINGERPRINT>
10411042 1 17762339115865270822
10906281 52 17987818357521411667
11578080 2 17130125723672071746
11646440 116 17775292677015036555
12107698 1 17603581903340428804
12166972 35 18341333370533509849
12236239 1 18409449206262864266
12293681 4 17676498228591318297
12516196 113 17561360677606689802
12788726 201 17632590317977759545
12838862 33 18269816679822300819
13004483 165 18335411319148597906
13140716 1 18337386154091753522
13583140 156 17458343061878716883
13782708 43 15792310283624759897
14117953 113 18411983516799651694
14341114 176 18336273396726833739
14790565 3 18413112736415663073
15183329 4 18410577283828882861
15196674 1 18413108381218786487
1601671 61 18411980260528657924
1813 80 17313106332543798300
18608769 82 18341332310135809515
18681886 176 18343293795454783187
19141452 34 18412260653179190254
20511986 3 18342725334794427330
20642791 178 18262807387716424359
21033648 29 18271791403260084209
21267235 1 18412833477631923870
21304253 335 18409453621547429692
21421861 104 18042392561632504282
23402539 116 18202557384645765871
23559900 14 18059852909233896216
23569917 315 18343308049951300103
3004659 81 18411140230030649166
3178227 256 18338248119868815339
335352 9 18412826880783404854
34797466 226 16200433602217891704
34934 24 18410854391003402762
350125 39 18412262813547707496
3680242 22 18337673001513791842
4017518 198 17632582639373320174
4073 2 18113906008355858458
4340502 62 18131063831994408528
5104073 3 18335699502706158490
59755656 215 18130795512888128310
6328613 192 18411705425967428604
7226269 152 17917993862824757953
9981440 41 17254557617485690761

> <PUBCHEM_SHAPE_MULTIPOLES>
541.9
13.43
2.69
1.05
3.34
0.02
-0.2
1.32
-1.59
-0.59
0.78
-0.58
0.55
-1.13

> <PUBCHEM_SHAPE_SELFOVERLAP>
1218.422

> <PUBCHEM_SHAPE_VOLUME>
287.5

> <PUBCHEM_COORDINATE_TYPE>
2
5
10

$$$$
