541341
  -OEChem-02172602253D

 54 58  0     1  0  0  0  0  0999 V2000
   -1.2992   -1.3306   -1.1769 O   0  0  0  0  0  0  0  0  0  0  0  0
   -3.7293    0.6535    0.6670 O   0  0  0  0  0  0  0  0  0  0  0  0
    4.2405    1.3749   -0.6752 O   0  0  0  0  0  0  0  0  0  0  0  0
    2.9627   -2.7288    1.0800 O   0  0  0  0  0  0  0  0  0  0  0  0
    4.7221   -1.2649    0.3291 O   0  0  0  0  0  0  0  0  0  0  0  0
   -2.8382   -2.9500   -0.5890 O   0  0  0  0  0  0  0  0  0  0  0  0
   -3.5194   -1.3030    1.8774 O   0  0  0  0  0  0  0  0  0  0  0  0
    0.1460    2.7785   -0.6228 N   0  0  1  0  0  0  0  0  0  0  0  0
   -0.6138    0.6505    0.0355 C   0  0  1  0  0  0  0  0  0  0  0  0
   -0.7176    1.6787   -1.1140 C   0  0  1  0  0  0  0  0  0  0  0  0
   -0.7634    1.5631    1.2704 C   0  0  0  0  0  0  0  0  0  0  0  0
   -1.6919   -0.4584   -0.1064 C   0  0  1  0  0  0  0  0  0  0  0  0
   -2.1441    2.1836   -1.3873 C   0  0  0  0  0  0  0  0  0  0  0  0
   -0.1725    2.9075    0.8205 C   0  0  0  0  0  0  0  0  0  0  0  0
    0.8370    0.1120    0.0938 C   0  0  0  0  0  0  0  0  0  0  0  0
   -3.1067    0.0396   -0.4543 C   0  0  2  0  0  0  0  0  0  0  0  0
   -3.1024    1.0218   -1.6269 C   0  0  0  0  0  0  0  0  0  0  0  0
    1.5588    2.3766   -0.8122 C   0  0  0  0  0  0  0  0  0  0  0  0
    1.8890    0.9840   -0.3147 C   0  0  0  0  0  0  0  0  0  0  0  0
    1.1572   -1.1593    0.5984 C   0  0  0  0  0  0  0  0  0  0  0  0
    3.2272    0.5665   -0.2703 C   0  0  0  0  0  0  0  0  0  0  0  0
    2.4861   -1.5340    0.6333 C   0  0  0  0  0  0  0  0  0  0  0  0
    3.4906   -0.6987    0.2072 C   0  0  0  0  0  0  0  0  0  0  0  0
   -2.1381   -2.3774   -1.4130 C   0  0  0  0  0  0  0  0  0  0  0  0
   -3.8738   -0.1364    1.7738 C   0  0  0  0  0  0  0  0  0  0  0  0
    4.3799   -2.5526    0.8803 C   0  0  0  0  0  0  0  0  0  0  0  0
   -2.0837   -2.7413   -2.8658 C   0  0  0  0  0  0  0  0  0  0  0  0
   -4.5405    0.6387    2.8696 C   0  0  0  0  0  0  0  0  0  0  0  0
    5.2374    1.7060    0.2924 C   0  0  0  0  0  0  0  0  0  0  0  0
   -0.3358    1.2672   -2.0600 H   0  0  0  0  0  0  0  0  0  0  0  0
   -0.2457    1.1742    2.1551 H   0  0  0  0  0  0  0  0  0  0  0  0
   -1.8032    1.7272    1.5556 H   0  0  0  0  0  0  0  0  0  0  0  0
   -1.6517   -1.0488    0.8090 H   0  0  0  0  0  0  0  0  0  0  0  0
   -2.1368    2.8385   -2.2676 H   0  0  0  0  0  0  0  0  0  0  0  0
   -2.5281    2.7932   -0.5608 H   0  0  0  0  0  0  0  0  0  0  0  0
   -0.9159    3.7022    0.9551 H   0  0  0  0  0  0  0  0  0  0  0  0
    0.6961    3.1937    1.4253 H   0  0  0  0  0  0  0  0  0  0  0  0
   -3.7845   -0.7643   -0.7575 H   0  0  0  0  0  0  0  0  0  0  0  0
   -4.1104    1.4279   -1.7745 H   0  0  0  0  0  0  0  0  0  0  0  0
   -2.8210    0.5043   -2.5513 H   0  0  0  0  0  0  0  0  0  0  0  0
    2.2072    3.1148   -0.3236 H   0  0  0  0  0  0  0  0  0  0  0  0
    1.7869    2.4214   -1.8850 H   0  0  0  0  0  0  0  0  0  0  0  0
    0.4003   -1.8444    0.9617 H   0  0  0  0  0  0  0  0  0  0  0  0
    4.8873   -2.6674    1.8451 H   0  0  0  0  0  0  0  0  0  0  0  0
    4.7383   -3.3328    0.1990 H   0  0  0  0  0  0  0  0  0  0  0  0
   -1.0637   -3.0226   -3.1397 H   0  0  0  0  0  0  0  0  0  0  0  0
   -2.4275   -1.9004   -3.4730 H   0  0  0  0  0  0  0  0  0  0  0  0
   -2.7409   -3.5960   -3.0500 H   0  0  0  0  0  0  0  0  0  0  0  0
   -5.5309    0.9649    2.5426 H   0  0  0  0  0  0  0  0  0  0  0  0
   -3.9234    1.4975    3.1448 H   0  0  0  0  0  0  0  0  0  0  0  0
   -4.6572   -0.0025    3.7480 H   0  0  0  0  0  0  0  0  0  0  0  0
    6.0420    0.9658    0.2728 H   0  0  0  0  0  0  0  0  0  0  0  0
    4.8146    1.7850    1.3000 H   0  0  0  0  0  0  0  0  0  0  0  0
    5.6609    2.6773    0.0207 H   0  0  0  0  0  0  0  0  0  0  0  0
  1 12  1  0  0  0  0
  1 24  1  0  0  0  0
  2 16  1  0  0  0  0
  2 25  1  0  0  0  0
  3 21  1  0  0  0  0
  3 29  1  0  0  0  0
  4 22  1  0  0  0  0
  4 26  1  0  0  0  0
  5 23  1  0  0  0  0
  5 26  1  0  0  0  0
  6 24  2  0  0  0  0
  7 25  2  0  0  0  0
  8 10  1  0  0  0  0
  8 14  1  0  0  0  0
  8 18  1  0  0  0  0
  9 10  1  0  0  0  0
  9 11  1  0  0  0  0
  9 12  1  0  0  0  0
  9 15  1  0  0  0  0
 10 13  1  0  0  0  0
 10 30  1  0  0  0  0
 11 14  1  0  0  0  0
 11 31  1  0  0  0  0
 11 32  1  0  0  0  0
 12 16  1  0  0  0  0
 12 33  1  0  0  0  0
 13 17  1  0  0  0  0
 13 34  1  0  0  0  0
 13 35  1  0  0  0  0
 14 36  1  0  0  0  0
 14 37  1  0  0  0  0
 15 19  1  0  0  0  0
 15 20  2  0  0  0  0
 16 17  1  0  0  0  0
 16 38  1  0  0  0  0
 17 39  1  0  0  0  0
 17 40  1  0  0  0  0
 18 19  1  0  0  0  0
 18 41  1  0  0  0  0
 18 42  1  0  0  0  0
 19 21  2  0  0  0  0
 20 22  1  0  0  0  0
 20 43  1  0  0  0  0
 21 23  1  0  0  0  0
 22 23  2  0  0  0  0
 24 27  1  0  0  0  0
 25 28  1  0  0  0  0
 26 44  1  0  0  0  0
 26 45  1  0  0  0  0
 27 46  1  0  0  0  0
 27 47  1  0  0  0  0
 27 48  1  0  0  0  0
 28 49  1  0  0  0  0
 28 50  1  0  0  0  0
 28 51  1  0  0  0  0
 29 52  1  0  0  0  0
 29 53  1  0  0  0  0
 29 54  1  0  0  0  0
M  END
> <PUBCHEM_COMPOUND_CID>
541341

> <PUBCHEM_CONFORMER_RMSD>
0.8

> <PUBCHEM_CONFORMER_DIVERSEORDER>
1
4
26
3
20
18
8
38
16
9
7
32
5
15
24
17
25
19
14
2
13
36
21
12
31
39
6
23
22
37
10
34
30
11
28
29
27
33
35

> <PUBCHEM_MMFF94_PARTIAL_CHARGES>
27
1 -0.43
10 0.27
12 0.28
14 0.27
15 -0.14
16 0.28
18 0.41
19 -0.14
2 -0.43
20 -0.15
21 0.08
22 0.08
23 0.08
24 0.66
25 0.66
26 0.56
27 0.06
28 0.06
29 0.28
3 -0.36
4 -0.36
43 0.15
5 -0.36
6 -0.57
7 -0.57
8 -0.81
9 0.14

> <PUBCHEM_EFFECTIVE_ROTOR_COUNT>
7

> <PUBCHEM_PHARMACOPHORE_FEATURES>
10
1 3 acceptor
1 4 acceptor
1 5 acceptor
1 6 acceptor
1 7 acceptor
1 8 cation
5 4 5 22 23 26 rings
6 15 19 20 21 22 23 rings
6 9 10 12 13 16 17 rings
8 8 9 10 11 14 15 18 19 rings

> <PUBCHEM_HEAVY_ATOM_COUNT>
29

> <PUBCHEM_ATOM_DEF_STEREO_COUNT>
0

> <PUBCHEM_ATOM_UDEF_STEREO_COUNT>
4

> <PUBCHEM_BOND_DEF_STEREO_COUNT>
0

> <PUBCHEM_BOND_UDEF_STEREO_COUNT>
0

> <PUBCHEM_ISOTOPIC_ATOM_COUNT>
0

> <PUBCHEM_COMPONENT_COUNT>
1

> <PUBCHEM_CACTVS_TAUTO_COUNT>
1

> <PUBCHEM_CONFORMER_ID>
0008429D00000001

> <PUBCHEM_MMFF94_ENERGY>
104.7215

> <PUBCHEM_FEATURE_SELFOVERLAP>
50.942

> <PUBCHEM_SHAPE_FINGERPRINT>
10764073 3 17827656763996372169
107951 10 17098891643759422445
10906281 52 17832994849730799429
11552529 35 17416671630440050310
11578080 2 17986083401092669785
12403814 3 18334575746193620277
12422481 6 17980499870593010249
12553582 1 18408318900110069958
12633257 1 17632573816887143498
12788726 201 17775002332483102993
13140716 1 18341604919466356850
13224815 77 18336535084493533336
13544653 18 18186245034525883377
13583140 156 17968376740957365287
14765038 42 18270978945676636040
14790565 3 18196646290145523765
14955137 171 18126874756573752873
15064986 96 18057069955078319059
15537594 2 18337121137160507486
16945 1 18335972160009813733
17349148 13 17632288012973710751
20681651 13 18129929174116434186
20775438 99 17187785243104146167
221490 88 18041563529722105720
23419403 2 15721366610719122389
23559900 14 18042956585359020800
23598288 3 18337952285898386455
2818148 4 18264214771427379863
3380486 145 18337659893052083852
34934 24 18410566305982281548
352729 6 17836364843873796556
392239 28 18200015370420193744
469060 322 18043806704650714261
5104073 3 18115305562631480088
70251023 43 17626092414811610863
9709674 26 18041274357953205276

> <PUBCHEM_SHAPE_MULTIPOLES>
550.74
8.7
3.47
2.01
5.81
0.91
-0.23
1.81
-3.4
0.57
1.03
-3.17
0.6
-1.79

> <PUBCHEM_SHAPE_SELFOVERLAP>
1215.965

> <PUBCHEM_SHAPE_VOLUME>
294.7

> <PUBCHEM_COORDINATE_TYPE>
2
5
10

$$$$
