3055167
  -OEChem-02172602263D

 39 42  0     1  0  0  0  0  0999 V2000
   -4.5157    0.1728   -1.3500 O   0  0  0  0  0  0  0  0  0  0  0  0
   -1.4622    0.3397    0.2965 O   0  0  0  0  0  0  0  0  0  0  0  0
   -0.6907   -2.4707    0.2573 O   0  0  0  0  0  0  0  0  0  0  0  0
    0.5830    2.1965    0.2075 O   0  0  0  0  0  0  0  0  0  0  0  0
    3.8426   -1.3918    0.0541 O   0  0  0  0  0  0  0  0  0  0  0  0
    1.2880    4.3755    0.1770 O   0  0  0  0  0  0  0  0  0  0  0  0
   -4.4869    0.1099    0.0817 C   0  0  0  0  0  0  0  0  0  0  0  0
   -3.5374    0.9765   -0.6850 C   0  0  1  0  0  0  0  0  0  0  0  0
   -2.1364    0.5401   -0.9445 C   0  0  0  0  0  0  0  0  0  0  0  0
   -5.6953    0.6579    0.7433 C   0  0  0  0  0  0  0  0  0  0  0  0
   -4.0275   -1.1935    0.6183 C   0  0  0  0  0  0  0  0  0  0  0  0
   -0.1670   -0.0771    0.2371 C   0  0  0  0  0  0  0  0  0  0  0  0
    0.1827   -1.4250    0.2192 C   0  0  0  0  0  0  0  0  0  0  0  0
    0.9043    0.8193    0.1904 C   0  0  0  0  0  0  0  0  0  0  0  0
    1.4918   -1.8940    0.1595 C   0  0  0  0  0  0  0  0  0  0  0  0
    2.2363    0.4097    0.1298 C   0  0  0  0  0  0  0  0  0  0  0  0
    2.5451   -0.9596    0.1135 C   0  0  0  0  0  0  0  0  0  0  0  0
    1.3941   -3.3108    0.1621 C   0  0  0  0  0  0  0  0  0  0  0  0
    3.2787    1.4232    0.0856 C   0  0  0  0  0  0  0  0  0  0  0  0
    0.0522   -3.6075    0.2223 C   0  0  0  0  0  0  0  0  0  0  0  0
    2.9626    2.7201    0.1022 C   0  0  0  0  0  0  0  0  0  0  0  0
    1.5642    3.1810    0.1650 C   0  0  0  0  0  0  0  0  0  0  0  0
    4.3933   -1.5921   -1.2430 C   0  0  0  0  0  0  0  0  0  0  0  0
   -3.6663    2.0495   -0.6623 H   0  0  0  0  0  0  0  0  0  0  0  0
   -1.6202    1.3187   -1.5188 H   0  0  0  0  0  0  0  0  0  0  0  0
   -2.1058   -0.3836   -1.5359 H   0  0  0  0  0  0  0  0  0  0  0  0
   -6.0002    1.6134    0.3027 H   0  0  0  0  0  0  0  0  0  0  0  0
   -5.5062    0.8300    1.8080 H   0  0  0  0  0  0  0  0  0  0  0  0
   -6.5404   -0.0326    0.6525 H   0  0  0  0  0  0  0  0  0  0  0  0
   -3.3714   -1.7341   -0.0708 H   0  0  0  0  0  0  0  0  0  0  0  0
   -4.8790   -1.8551    0.8140 H   0  0  0  0  0  0  0  0  0  0  0  0
   -3.4939   -1.0544    1.5643 H   0  0  0  0  0  0  0  0  0  0  0  0
    2.2023   -4.0274    0.1246 H   0  0  0  0  0  0  0  0  0  0  0  0
    4.3201    1.1248    0.0460 H   0  0  0  0  0  0  0  0  0  0  0  0
   -0.5075   -4.5309    0.2463 H   0  0  0  0  0  0  0  0  0  0  0  0
    3.7373    3.4786    0.0720 H   0  0  0  0  0  0  0  0  0  0  0  0
    5.4471   -1.8613   -1.1300 H   0  0  0  0  0  0  0  0  0  0  0  0
    4.3297   -0.6802   -1.8449 H   0  0  0  0  0  0  0  0  0  0  0  0
    3.8780   -2.4115   -1.7538 H   0  0  0  0  0  0  0  0  0  0  0  0
  1  7  1  0  0  0  0
  1  8  1  0  0  0  0
  2  9  1  0  0  0  0
  2 12  1  0  0  0  0
  3 13  1  0  0  0  0
  3 20  1  0  0  0  0
  4 14  1  0  0  0  0
  4 22  1  0  0  0  0
  5 17  1  0  0  0  0
  5 23  1  0  0  0  0
  6 22  2  0  0  0  0
  7  8  1  0  0  0  0
  7 10  1  0  0  0  0
  7 11  1  0  0  0  0
  8  9  1  0  0  0  0
  8 24  1  0  0  0  0
  9 25  1  0  0  0  0
  9 26  1  0  0  0  0
 10 27  1  0  0  0  0
 10 28  1  0  0  0  0
 10 29  1  0  0  0  0
 11 30  1  0  0  0  0
 11 31  1  0  0  0  0
 11 32  1  0  0  0  0
 12 13  2  0  0  0  0
 12 14  1  0  0  0  0
 13 15  1  0  0  0  0
 14 16  2  0  0  0  0
 15 17  2  0  0  0  0
 15 18  1  0  0  0  0
 16 17  1  0  0  0  0
 16 19  1  0  0  0  0
 18 20  2  0  0  0  0
 18 33  1  0  0  0  0
 19 21  2  0  0  0  0
 19 34  1  0  0  0  0
 20 35  1  0  0  0  0
 21 22  1  0  0  0  0
 21 36  1  0  0  0  0
 23 37  1  0  0  0  0
 23 38  1  0  0  0  0
 23 39  1  0  0  0  0
M  END
> <PUBCHEM_COMPOUND_CID>
3055167

> <PUBCHEM_CONFORMER_RMSD>
0.8

> <PUBCHEM_CONFORMER_DIVERSEORDER>
6
14
11
12
5
17
2
15
9
3
16
8
4
7
1
13
10

> <PUBCHEM_MMFF94_PARTIAL_CHARGES>
27
1 -0.3
10 0.09
11 0.09
12 0.08
13 0.14
14 0.08
16 0.03
17 0.08
18 -0.15
19 -0.18
2 -0.36
20 -0.01
21 -0.14
22 0.71
23 0.28
24 0.1
3 -0.28
33 0.15
34 0.15
35 0.15
36 0.15
4 -0.23
5 -0.36
6 -0.57
7 -0.04
8 -0.05
9 0.38

> <PUBCHEM_EFFECTIVE_ROTOR_COUNT>
4.6

> <PUBCHEM_PHARMACOPHORE_FEATURES>
9
1 1 acceptor
1 2 acceptor
1 3 acceptor
1 5 acceptor
1 6 acceptor
3 7 10 11 hydrophobe
5 3 13 15 18 20 rings
6 12 13 14 15 16 17 rings
6 4 14 16 19 21 22 rings

> <PUBCHEM_HEAVY_ATOM_COUNT>
23

> <PUBCHEM_ATOM_DEF_STEREO_COUNT>
1

> <PUBCHEM_ATOM_UDEF_STEREO_COUNT>
0

> <PUBCHEM_BOND_DEF_STEREO_COUNT>
0

> <PUBCHEM_BOND_UDEF_STEREO_COUNT>
0

> <PUBCHEM_ISOTOPIC_ATOM_COUNT>
0

> <PUBCHEM_COMPONENT_COUNT>
1

> <PUBCHEM_CACTVS_TAUTO_COUNT>
1

> <PUBCHEM_CONFORMER_ID>
002E9E3F00000006

> <PUBCHEM_MMFF94_ENERGY>
76.567

> <PUBCHEM_FEATURE_SELFOVERLAP>
45.806

> <PUBCHEM_SHAPE_FINGERPRINT>
10366900 7 18114180805296369527
10411042 1 17906170655193752835
10693767 8 18130217143269164662
10906281 52 18341617074951596848
10967382 1 18410571790892648384
1100329 8 18410852183474803738
12035758 1 18409438203168419834
12236239 1 17632577115796495011
12553582 1 18267576906265346791
12730499 353 18334580148835753131
13140716 1 18337383933298431474
13583140 156 16590522765542060657
138480 1 18266173933449056298
14790565 3 18338809922665573960
15475509 8 17771654280973774390
16945 1 18266463105592808330
17980427 23 17840553159142516232
18186145 218 18411978061784977311
18785283 64 18334861666160957817
19591789 44 18337391668302442043
20028762 73 18272926150620819111
20739085 24 18335148556975832409
21041028 32 17905318533581564406
21197605 99 18120946263810062259
221490 88 18408609188222626035
22182313 1 18266191702203656442
2255824 54 18412539916505972269
2334 1 18266461082663172898
23557571 272 16950846891367441021
23558518 356 17684643621119573914
23559900 14 18409722959547811801
23598291 2 18059841879567865757
238 59 17757505825719805623
2748010 2 18338524148478931906
283562 15 18123757452937555450
3060560 45 18410848837563242558
3178227 256 18335996289025046811
350125 39 18048602812988875162
474 4 18340483460845614889
5104073 3 18335421296595010747
6287921 2 18116718619735543357
633830 44 18343865528531746941
6443956 14 18337675196004475556
81228 2 17035271022789051801
8272917 22 18341335518074848573
9999458 23 18409168805033395639

> <PUBCHEM_SHAPE_MULTIPOLES>
438.11
8.68
4.33
0.86
11.38
1.1
0.2
0.87
0.85
-4.18
-0.51
0.35
-0.06
0.7

> <PUBCHEM_SHAPE_SELFOVERLAP>
964.168

> <PUBCHEM_SHAPE_VOLUME>
239.4

> <PUBCHEM_COORDINATE_TYPE>
2
5
10

$$$$
