6431572
  -OEChem-02172602383D

 77 78  0     1  0  0  0  0  0999 V2000
    4.7516   -1.2487   -1.1334 Si  0  0  0  0  0  0  0  0  0  0  0  0
    1.3996   -3.1826    1.7059 Si  0  0  0  0  0  0  0  0  0  0  0  0
    1.5742    4.6297    0.6851 Si  0  0  0  0  0  0  0  0  0  0  0  0
   -6.2477   -0.2559   -0.0905 Si  0  0  0  0  0  0  0  0  0  0  0  0
    0.9271    0.7978   -1.3428 O   0  0  0  0  0  0  0  0  0  0  0  0
    3.0809   -1.2611   -1.0256 O   0  0  0  0  0  0  0  0  0  0  0  0
    0.9610   -2.3898    0.2896 O   0  0  0  0  0  0  0  0  0  0  0  0
    1.7878    3.2325   -0.2222 O   0  0  0  0  0  0  0  0  0  0  0  0
   -1.8477   -2.2211   -1.4568 O   0  0  0  0  0  0  0  0  0  0  0  0
   -4.9339    0.7222    0.1538 O   0  0  0  0  0  0  0  0  0  0  0  0
   -1.1014   -0.1673   -0.6943 N   0  0  0  0  0  0  0  0  0  0  0  0
   -3.4352   -0.7980   -0.6645 N   0  0  0  0  0  0  0  0  0  0  0  0
    2.4365   -0.4690   -0.0284 C   0  0  2  0  0  0  0  0  0  0  0  0
    1.0328   -0.9801    0.2215 C   0  0  1  0  0  0  0  0  0  0  0  0
    2.1735    0.9086   -0.6210 C   0  0  2  0  0  0  0  0  0  0  0  0
    0.2806   -0.4329   -0.9798 C   0  0  2  0  0  0  0  0  0  0  0  0
    2.0166    1.9971    0.4327 C   0  0  0  0  0  0  0  0  0  0  0  0
    5.4961   -1.2471    0.5975 C   0  0  0  0  0  0  0  0  0  0  0  0
    5.3675    0.2849   -2.0320 C   0  0  0  0  0  0  0  0  0  0  0  0
    5.3892   -2.7693   -2.0386 C   0  0  0  0  0  0  0  0  0  0  0  0
    3.1959   -2.8391    2.1458 C   0  0  0  0  0  0  0  0  0  0  0  0
    0.3168   -2.6441    3.1469 C   0  0  0  0  0  0  0  0  0  0  0  0
    1.1989   -5.0437    1.4910 C   0  0  0  0  0  0  0  0  0  0  0  0
   -1.4416    1.0630   -0.1384 C   0  0  0  0  0  0  0  0  0  0  0  0
   -2.1206   -1.1247   -0.9652 C   0  0  0  0  0  0  0  0  0  0  0  0
    3.0904    4.9948    1.7369 C   0  0  0  0  0  0  0  0  0  0  0  0
    1.2919    6.1000   -0.4589 C   0  0  0  0  0  0  0  0  0  0  0  0
    0.0808    4.4808    1.8190 C   0  0  0  0  0  0  0  0  0  0  0  0
   -2.6959    1.4035    0.1608 C   0  0  0  0  0  0  0  0  0  0  0  0
   -3.6672    0.3605   -0.1527 C   0  0  0  0  0  0  0  0  0  0  0  0
   -7.7998    0.6349    0.4934 C   0  0  0  0  0  0  0  0  0  0  0  0
   -6.0956   -1.8619    0.8771 C   0  0  0  0  0  0  0  0  0  0  0  0
   -6.4631   -0.6740   -1.9119 C   0  0  0  0  0  0  0  0  0  0  0  0
    3.0063   -0.4033    0.8955 H   0  0  0  0  0  0  0  0  0  0  0  0
    0.6295   -0.5261    1.1379 H   0  0  0  0  0  0  0  0  0  0  0  0
    2.9109    1.2281   -1.3596 H   0  0  0  0  0  0  0  0  0  0  0  0
    0.3483   -1.1163   -1.8348 H   0  0  0  0  0  0  0  0  0  0  0  0
    1.1981    1.7726    1.1243 H   0  0  0  0  0  0  0  0  0  0  0  0
    2.9459    2.0575    1.0140 H   0  0  0  0  0  0  0  0  0  0  0  0
    5.5718   -2.2487    1.0200 H   0  0  0  0  0  0  0  0  0  0  0  0
    6.5304   -0.8927    0.5098 H   0  0  0  0  0  0  0  0  0  0  0  0
    5.0089   -0.5691    1.2987 H   0  0  0  0  0  0  0  0  0  0  0  0
    4.8427    0.4111   -2.9834 H   0  0  0  0  0  0  0  0  0  0  0  0
    5.2158    1.1829   -1.4264 H   0  0  0  0  0  0  0  0  0  0  0  0
    6.4382    0.1985   -2.2405 H   0  0  0  0  0  0  0  0  0  0  0  0
    4.9997   -2.7985   -3.0603 H   0  0  0  0  0  0  0  0  0  0  0  0
    6.4821   -2.7603   -2.0859 H   0  0  0  0  0  0  0  0  0  0  0  0
    5.0737   -3.6815   -1.5237 H   0  0  0  0  0  0  0  0  0  0  0  0
    3.3774   -1.7946    2.3914 H   0  0  0  0  0  0  0  0  0  0  0  0
    3.4700   -3.4260    3.0287 H   0  0  0  0  0  0  0  0  0  0  0  0
    3.8113   -3.1923    1.3219 H   0  0  0  0  0  0  0  0  0  0  0  0
    0.4636   -1.5831    3.3687 H   0  0  0  0  0  0  0  0  0  0  0  0
   -0.7397   -2.8041    2.9125 H   0  0  0  0  0  0  0  0  0  0  0  0
    0.5611   -3.2179    4.0457 H   0  0  0  0  0  0  0  0  0  0  0  0
    1.8327   -5.4047    0.6757 H   0  0  0  0  0  0  0  0  0  0  0  0
    1.4815   -5.5696    2.4076 H   0  0  0  0  0  0  0  0  0  0  0  0
    0.1597   -5.2916    1.2561 H   0  0  0  0  0  0  0  0  0  0  0  0
   -0.6583    1.7773    0.0569 H   0  0  0  0  0  0  0  0  0  0  0  0
    3.2598    4.1943    2.4630 H   0  0  0  0  0  0  0  0  0  0  0  0
    3.9810    5.0834    1.1079 H   0  0  0  0  0  0  0  0  0  0  0  0
    2.9612    5.9327    2.2850 H   0  0  0  0  0  0  0  0  0  0  0  0
    0.4021    5.9399   -1.0747 H   0  0  0  0  0  0  0  0  0  0  0  0
    1.1508    7.0169    0.1208 H   0  0  0  0  0  0  0  0  0  0  0  0
    2.1504    6.2388   -1.1223 H   0  0  0  0  0  0  0  0  0  0  0  0
    0.2158    3.6641    2.5339 H   0  0  0  0  0  0  0  0  0  0  0  0
   -0.0679    5.4072    2.3815 H   0  0  0  0  0  0  0  0  0  0  0  0
   -0.8242    4.2834    1.2371 H   0  0  0  0  0  0  0  0  0  0  0  0
   -2.9819    2.3523    0.5906 H   0  0  0  0  0  0  0  0  0  0  0  0
   -7.9390    1.5668   -0.0623 H   0  0  0  0  0  0  0  0  0  0  0  0
   -8.6835    0.0079    0.3425 H   0  0  0  0  0  0  0  0  0  0  0  0
   -7.7257    0.8762    1.5578 H   0  0  0  0  0  0  0  0  0  0  0  0
   -5.2717   -2.4766    0.5046 H   0  0  0  0  0  0  0  0  0  0  0  0
   -7.0173   -2.4455    0.7926 H   0  0  0  0  0  0  0  0  0  0  0  0
   -5.9183   -1.6541    1.9365 H   0  0  0  0  0  0  0  0  0  0  0  0
   -7.3882   -1.2377   -2.0663 H   0  0  0  0  0  0  0  0  0  0  0  0
   -5.6320   -1.2800   -2.2827 H   0  0  0  0  0  0  0  0  0  0  0  0
   -6.5157    0.2405   -2.5100 H   0  0  0  0  0  0  0  0  0  0  0  0
  1  6  1  0  0  0  0
  1 18  1  0  0  0  0
  1 19  1  0  0  0  0
  1 20  1  0  0  0  0
  2  7  1  0  0  0  0
  2 21  1  0  0  0  0
  2 22  1  0  0  0  0
  2 23  1  0  0  0  0
  3  8  1  0  0  0  0
  3 26  1  0  0  0  0
  3 27  1  0  0  0  0
  3 28  1  0  0  0  0
  4 10  1  0  0  0  0
  4 31  1  0  0  0  0
  4 32  1  0  0  0  0
  4 33  1  0  0  0  0
  5 15  1  0  0  0  0
  5 16  1  0  0  0  0
  6 13  1  0  0  0  0
  7 14  1  0  0  0  0
  8 17  1  0  0  0  0
  9 25  2  0  0  0  0
 10 30  1  0  0  0  0
 11 16  1  0  0  0  0
 11 24  1  0  0  0  0
 11 25  1  0  0  0  0
 12 25  1  0  0  0  0
 12 30  2  0  0  0  0
 13 14  1  0  0  0  0
 13 15  1  0  0  0  0
 13 34  1  0  0  0  0
 14 16  1  0  0  0  0
 14 35  1  0  0  0  0
 15 17  1  0  0  0  0
 15 36  1  0  0  0  0
 16 37  1  0  0  0  0
 17 38  1  0  0  0  0
 17 39  1  0  0  0  0
 18 40  1  0  0  0  0
 18 41  1  0  0  0  0
 18 42  1  0  0  0  0
 19 43  1  0  0  0  0
 19 44  1  0  0  0  0
 19 45  1  0  0  0  0
 20 46  1  0  0  0  0
 20 47  1  0  0  0  0
 20 48  1  0  0  0  0
 21 49  1  0  0  0  0
 21 50  1  0  0  0  0
 21 51  1  0  0  0  0
 22 52  1  0  0  0  0
 22 53  1  0  0  0  0
 22 54  1  0  0  0  0
 23 55  1  0  0  0  0
 23 56  1  0  0  0  0
 23 57  1  0  0  0  0
 24 29  2  0  0  0  0
 24 58  1  0  0  0  0
 26 59  1  0  0  0  0
 26 60  1  0  0  0  0
 26 61  1  0  0  0  0
 27 62  1  0  0  0  0
 27 63  1  0  0  0  0
 27 64  1  0  0  0  0
 28 65  1  0  0  0  0
 28 66  1  0  0  0  0
 28 67  1  0  0  0  0
 29 30  1  0  0  0  0
 29 68  1  0  0  0  0
 31 69  1  0  0  0  0
 31 70  1  0  0  0  0
 31 71  1  0  0  0  0
 32 72  1  0  0  0  0
 32 73  1  0  0  0  0
 32 74  1  0  0  0  0
 33 75  1  0  0  0  0
 33 76  1  0  0  0  0
 33 77  1  0  0  0  0
M  END
> <PUBCHEM_COMPOUND_CID>
6431572

> <PUBCHEM_CONFORMER_RMSD>
1.4

> <PUBCHEM_CONFORMER_DIVERSEORDER>
1
10
4
11
8
3
7
2
9
5
6

> <PUBCHEM_MMFF94_PARTIAL_CHARGES>
35
1 0.54
10 -0.45
11 -0.47
12 -0.66
13 0.28
14 0.28
15 0.28
16 0.58
17 0.28
18 -0.08
19 -0.08
2 0.54
20 -0.08
21 -0.08
22 -0.08
23 -0.08
24 -0.04
25 0.84
26 -0.08
27 -0.08
28 -0.08
29 -0.14
3 0.54
30 0.59
31 -0.08
32 -0.08
33 -0.08
4 0.54
5 -0.56
58 0.15
6 -0.58
68 0.15
7 -0.58
8 -0.58
9 -0.57

> <PUBCHEM_EFFECTIVE_ROTOR_COUNT>
11

> <PUBCHEM_PHARMACOPHORE_FEATURES>
5
1 12 donor
1 5 acceptor
1 9 acceptor
5 5 13 14 15 16 rings
6 11 12 24 25 29 30 rings

> <PUBCHEM_HEAVY_ATOM_COUNT>
33

> <PUBCHEM_ATOM_DEF_STEREO_COUNT>
3

> <PUBCHEM_ATOM_UDEF_STEREO_COUNT>
1

> <PUBCHEM_BOND_DEF_STEREO_COUNT>
0

> <PUBCHEM_BOND_UDEF_STEREO_COUNT>
0

> <PUBCHEM_ISOTOPIC_ATOM_COUNT>
0

> <PUBCHEM_COMPONENT_COUNT>
1

> <PUBCHEM_CACTVS_TAUTO_COUNT>
1

> <PUBCHEM_CONFORMER_ID>
0062235400000001

> <PUBCHEM_MMFF94_ENERGY>
71.5689

> <PUBCHEM_FEATURE_SELFOVERLAP>
25.371

> <PUBCHEM_SHAPE_FINGERPRINT>
10074138 170 16750402403497093345
10305334 12 17396378035258961384
10366900 7 18040722437528385347
11421498 54 18192432974587994802
12788726 201 18266473014504152028
13583140 156 18260817182324941919
13590594 115 18270975547893508409
14028597 1 18115867400541494130
14849402 71 18338802332867531316
14955137 171 18342464707336010935
15439362 3 18195249042842476460
15775530 1 17759249883479951578
18681886 176 18131064927016234567
19319366 153 18113336384313805126
21344244 78 18194100946517307139
23558518 356 17906158904463138318
23559900 14 18273494602626812487
23845131 108 17975402831086681033
24771750 20 18050579731113158356
283562 15 18191597341904310324
3178227 256 18335150795006792947
4058900 60 18120655996644860913
5171179 24 17978243969455107754
5776283 40 18265347281695144556
9896288 288 17691675694117974738
9981440 41 17478600669782112376

> <PUBCHEM_SHAPE_MULTIPOLES>
706.8
14.01
7.28
2.19
26.24
10.93
-0.7
-6.14
5.26
-8.76
-4.88
-1.83
-1.5
0.4

> <PUBCHEM_SHAPE_SELFOVERLAP>
1345.532

> <PUBCHEM_SHAPE_VOLUME>
439.8

> <PUBCHEM_COORDINATE_TYPE>
2
5
10

$$$$
