5316043
  -OEChem-02172602523D

 41 42  0     0  0  0  0  0  0999 V2000
   -1.7106   -2.5649    1.1384 O   0  0  0  0  0  0  0  0  0  0  0  0
   -0.3984    2.2537   -0.0311 O   0  0  0  0  0  0  0  0  0  0  0  0
   -2.1537   -3.1152   -1.5491 O   0  0  0  0  0  0  0  0  0  0  0  0
    1.6481    1.8036    0.9419 O   0  0  0  0  0  0  0  0  0  0  0  0
   -3.0084    0.6321   -0.0271 C   0  0  0  0  0  0  0  0  0  0  0  0
   -2.5009   -0.3411    0.8191 C   0  0  0  0  0  0  0  0  0  0  0  0
   -2.2108   -1.6067    0.3095 C   0  0  0  0  0  0  0  0  0  0  0  0
   -3.2332    0.3726   -1.3698 C   0  0  0  0  0  0  0  0  0  0  0  0
   -2.4318   -1.8827   -1.0398 C   0  0  0  0  0  0  0  0  0  0  0  0
   -3.3151    1.9680    0.5110 C   0  0  0  0  0  0  0  0  0  0  0  0
   -2.9428   -0.8929   -1.8794 C   0  0  0  0  0  0  0  0  0  0  0  0
   -2.4273    2.7928    1.0879 C   0  0  0  0  0  0  0  0  0  0  0  0
   -0.9819    2.4521    1.2610 C   0  0  0  0  0  0  0  0  0  0  0  0
    3.0631    0.0801   -0.8149 C   0  0  0  0  0  0  0  0  0  0  0  0
    4.4459    0.2156   -0.6913 C   0  0  0  0  0  0  0  0  0  0  0  0
    2.3805   -0.8495   -0.0302 C   0  0  0  0  0  0  0  0  0  0  0  0
    2.3330    0.9080   -1.7620 C   0  0  0  0  0  0  0  0  0  0  0  0
    5.1460   -0.5785    0.2170 C   0  0  0  0  0  0  0  0  0  0  0  0
    3.0806   -1.6434    0.8782 C   0  0  0  0  0  0  0  0  0  0  0  0
    1.3442    1.7721   -1.4428 C   0  0  0  0  0  0  0  0  0  0  0  0
    4.4633   -1.5079    1.0019 C   0  0  0  0  0  0  0  0  0  0  0  0
    0.9242    1.9346   -0.0323 C   0  0  0  0  0  0  0  0  0  0  0  0
   -1.5139   -2.2026    2.5038 C   0  0  0  0  0  0  0  0  0  0  0  0
   -2.3773   -0.0877    1.8660 H   0  0  0  0  0  0  0  0  0  0  0  0
   -3.6302    1.1358   -2.0339 H   0  0  0  0  0  0  0  0  0  0  0  0
   -4.3442    2.2975    0.3926 H   0  0  0  0  0  0  0  0  0  0  0  0
   -3.1195   -1.0942   -2.9327 H   0  0  0  0  0  0  0  0  0  0  0  0
   -2.7655    3.7606    1.4474 H   0  0  0  0  0  0  0  0  0  0  0  0
   -0.4831    3.3058    1.7361 H   0  0  0  0  0  0  0  0  0  0  0  0
   -0.8331    1.5807    1.9061 H   0  0  0  0  0  0  0  0  0  0  0  0
    4.9921    0.9361   -1.2954 H   0  0  0  0  0  0  0  0  0  0  0  0
    1.3046   -0.9827   -0.1189 H   0  0  0  0  0  0  0  0  0  0  0  0
    2.6336    0.8193   -2.8028 H   0  0  0  0  0  0  0  0  0  0  0  0
    6.2226   -0.4731    0.3135 H   0  0  0  0  0  0  0  0  0  0  0  0
    2.5492   -2.3689    1.4872 H   0  0  0  0  0  0  0  0  0  0  0  0
    0.8267    2.3349   -2.2116 H   0  0  0  0  0  0  0  0  0  0  0  0
    5.0085   -2.1265    1.7088 H   0  0  0  0  0  0  0  0  0  0  0  0
   -2.3686   -3.1217   -2.4977 H   0  0  0  0  0  0  0  0  0  0  0  0
   -1.1042   -3.0808    3.0138 H   0  0  0  0  0  0  0  0  0  0  0  0
   -2.4612   -1.9621    2.9983 H   0  0  0  0  0  0  0  0  0  0  0  0
   -0.7727   -1.4024    2.6067 H   0  0  0  0  0  0  0  0  0  0  0  0
  1  7  1  0  0  0  0
  1 23  1  0  0  0  0
  2 13  1  0  0  0  0
  2 22  1  0  0  0  0
  3  9  1  0  0  0  0
  3 38  1  0  0  0  0
  4 22  2  0  0  0  0
  5  6  2  0  0  0  0
  5  8  1  0  0  0  0
  5 10  1  0  0  0  0
  6  7  1  0  0  0  0
  6 24  1  0  0  0  0
  7  9  2  0  0  0  0
  8 11  2  0  0  0  0
  8 25  1  0  0  0  0
  9 11  1  0  0  0  0
 10 12  2  0  0  0  0
 10 26  1  0  0  0  0
 11 27  1  0  0  0  0
 12 13  1  0  0  0  0
 12 28  1  0  0  0  0
 13 29  1  0  0  0  0
 13 30  1  0  0  0  0
 14 15  2  0  0  0  0
 14 16  1  0  0  0  0
 14 17  1  0  0  0  0
 15 18  1  0  0  0  0
 15 31  1  0  0  0  0
 16 19  2  0  0  0  0
 16 32  1  0  0  0  0
 17 20  2  0  0  0  0
 17 33  1  0  0  0  0
 18 21  2  0  0  0  0
 18 34  1  0  0  0  0
 19 21  1  0  0  0  0
 19 35  1  0  0  0  0
 20 22  1  0  0  0  0
 20 36  1  0  0  0  0
 21 37  1  0  0  0  0
 23 39  1  0  0  0  0
 23 40  1  0  0  0  0
 23 41  1  0  0  0  0
M  END
> <PUBCHEM_COMPOUND_CID>
5316043

> <PUBCHEM_CONFORMER_RMSD>
0.8

> <PUBCHEM_CONFORMER_DIVERSEORDER>
15
18
249
367
139
208
350
152
394
166
228
372
59
191
296
114
382
308
346
379
200
109
398
265
396
314
413
324
280
360
246
425
404
253
401
260
263
392
126
402
235
119
393
305
87
419
410
432
96
71
384
205
446
277
434
440
231
415
286
387
223
374
113
143
204
48
264
389
300
397
95
345
144
385
336
430
273
186
5
269
330
137
69
279
60
418
433
27
237
293
9
158
175
183
325
304
298
289
363
248
236
29
162
417
406
164
173
4
211
297
301
282
450
383
405
10
395
121
306
39
58
443
412
218
323
426
42
303
2
110
288
108
225
310
92
43
291
106
115
407
17
258
118
421
256
357
134
24
274
44
316
448
369
317
68
120
254
65
400
160
61
171
262
32
49
276
219
161
103
28
7
420
381
147
403
359
250
206
242
255
318
93
370
37
130
390
177
217
75
447
174
84
451
315
19
449
212
391
26
271
142
422
311
344
275
79
97
290
192
176
14
85
327
373
322
241
444
424
6
135
138
347
243
141
3
169
307
83
154
294
12
101
285
90
408
338
377
337
375
214
31
100
238
328
240
57
283
203
326
140
287
41
341
226
129
378
257
348
278
145
11
302
429
54
63
251
124
153
78
182
47
76
442
438
187
292
150
354
272
435
201
380
335
233
386
98
148
179
452
112
441
157
221
320
199
215
321
1
356
20
13
81
216
197
368
33
332
38
230
198
352
99
351
64
30
22
340
423
123
365
184
331
411
36
190
268
52
202
299
70
222
185
178
132
55
362
355
159
437
77
445
207
329
102
195
220
267
45
107
339
342
89
88
358
244
232
131
213
51
170
427
35
333
21
155
25
91
229
66
163
23
361
94
86
116
270
122
128
376
180
125
284
295
111
366
56
224
414
313
309
388
247
167
409
156
62
371
353
252
245
46
151
104
149
133
136
416
319
312
343
50
8
234
172
74
259
34
239
80
181
189
266
281
439
146
209
399
72
194
53
67
428
193
261
210
196
227
165
105
349
364
40
334
73
16
117
188
431
168
82
436
127

> <PUBCHEM_MMFF94_PARTIAL_CHARGES>
36
1 -0.36
10 -0.18
11 -0.15
12 -0.29
13 0.42
14 0.03
15 -0.15
16 -0.15
17 -0.18
18 -0.15
19 -0.15
2 -0.43
20 -0.14
21 -0.15
22 0.71
23 0.28
24 0.15
25 0.15
26 0.15
27 0.15
28 0.15
3 -0.53
31 0.15
32 0.15
33 0.15
34 0.15
35 0.15
36 0.15
37 0.15
38 0.45
4 -0.57
5 0.03
6 -0.15
7 0.08
8 -0.15
9 0.08

> <PUBCHEM_EFFECTIVE_ROTOR_COUNT>
7

> <PUBCHEM_PHARMACOPHORE_FEATURES>
5
1 1 acceptor
1 3 donor
1 4 acceptor
6 14 15 16 18 19 21 rings
6 5 6 7 8 9 11 rings

> <PUBCHEM_HEAVY_ATOM_COUNT>
23

> <PUBCHEM_ATOM_DEF_STEREO_COUNT>
0

> <PUBCHEM_ATOM_UDEF_STEREO_COUNT>
0

> <PUBCHEM_BOND_DEF_STEREO_COUNT>
2

> <PUBCHEM_BOND_UDEF_STEREO_COUNT>
0

> <PUBCHEM_ISOTOPIC_ATOM_COUNT>
0

> <PUBCHEM_COMPONENT_COUNT>
1

> <PUBCHEM_CACTVS_TAUTO_COUNT>
3

> <PUBCHEM_CONFORMER_ID>
00511DCB0000000F

> <PUBCHEM_MMFF94_ENERGY>
77.2989

> <PUBCHEM_FEATURE_SELFOVERLAP>
25.371

> <PUBCHEM_SHAPE_FINGERPRINT>
10165383 225 12396575162039137453
10764073 3 18117024177105403939
11045977 3 17988071189720116584
12156800 1 16046958134258303317
12363563 72 18130786818977171437
12539773 59 18052529972423690707
12553582 1 18343028786981804028
12633257 1 17632859694105320336
12788726 201 18200325320191520769
14081887 123 17988071189366422280
18981168 100 11098116886473067977
20511986 3 18261100830196810552
21315764 21 16951945306966595279
23559900 14 18201142347783806040
23728640 28 18272094859768210169
339767 52 18334284345547326162
392239 28 18342729759281026168
445580 42 18333173868514739506
463206 1 17835794570879965871
469060 322 11527362888803951175
602551 16 18059571339825634718
6438718 38 18272100344072344594

> <PUBCHEM_SHAPE_MULTIPOLES>
449.85
8.46
3.41
1.88
9.07
0.24
0.03
1.78
0.38
-2.52
-0.89
-0.97
0.64
-1.63

> <PUBCHEM_SHAPE_SELFOVERLAP>
955.827

> <PUBCHEM_SHAPE_VOLUME>
249.6

> <PUBCHEM_COORDINATE_TYPE>
2
5
10

$$$$
