101539213
  -OEChem-02172602503D

 31 31  0     0  0  0  0  0  0999 V2000
   -4.5163   -0.8511   -0.2824 O   0  0  0  0  0  0  0  0  0  0  0  0
   -0.4857    1.9988   -0.0871 O   0  0  0  0  0  0  0  0  0  0  0  0
    6.3021   -0.1202   -0.8702 O   0  0  0  0  0  0  0  0  0  0  0  0
   -1.9597    0.2300    0.2237 N   0  0  0  0  0  0  0  0  0  0  0  0
   -2.2656   -1.1661    0.5632 C   0  0  0  0  0  0  0  0  0  0  0  0
   -3.1422    1.0922    0.1768 C   0  0  0  0  0  0  0  0  0  0  0  0
   -3.3647   -1.6967   -0.3488 C   0  0  0  0  0  0  0  0  0  0  0  0
   -4.2080    0.4754   -0.7191 C   0  0  0  0  0  0  0  0  0  0  0  0
   -0.6972    0.7963    0.0807 C   0  0  0  0  0  0  0  0  0  0  0  0
    2.8855   -0.4415    0.7051 C   0  0  0  0  0  0  0  0  0  0  0  0
    0.4743   -0.1001    0.1351 C   0  0  0  0  0  0  0  0  0  0  0  0
    4.0391    0.1233   -0.1252 C   0  0  0  0  0  0  0  0  0  0  0  0
    1.6328    0.3808    0.6013 C   0  0  0  0  0  0  0  0  0  0  0  0
    5.3058   -0.7212   -0.0532 C   0  0  0  0  0  0  0  0  0  0  0  0
   -2.6137   -1.1581    1.6032 H   0  0  0  0  0  0  0  0  0  0  0  0
   -1.3898   -1.8129    0.5153 H   0  0  0  0  0  0  0  0  0  0  0  0
   -2.8874    2.0971   -0.1730 H   0  0  0  0  0  0  0  0  0  0  0  0
   -3.5114    1.1736    1.2060 H   0  0  0  0  0  0  0  0  0  0  0  0
   -3.0240   -1.7625   -1.3889 H   0  0  0  0  0  0  0  0  0  0  0  0
   -3.6662   -2.6992   -0.0298 H   0  0  0  0  0  0  0  0  0  0  0  0
   -5.1275    1.0670   -0.6722 H   0  0  0  0  0  0  0  0  0  0  0  0
   -3.8815    0.4438   -1.7654 H   0  0  0  0  0  0  0  0  0  0  0  0
    3.1835   -0.4811    1.7600 H   0  0  0  0  0  0  0  0  0  0  0  0
    2.6919   -1.4764    0.3964 H   0  0  0  0  0  0  0  0  0  0  0  0
    0.3984   -1.1170   -0.2266 H   0  0  0  0  0  0  0  0  0  0  0  0
    4.2714    1.1460    0.2003 H   0  0  0  0  0  0  0  0  0  0  0  0
    3.7329    0.2156   -1.1758 H   0  0  0  0  0  0  0  0  0  0  0  0
    1.7065    1.4043    0.9609 H   0  0  0  0  0  0  0  0  0  0  0  0
    5.1192   -1.7355   -0.4196 H   0  0  0  0  0  0  0  0  0  0  0  0
    5.6801   -0.7746    0.9740 H   0  0  0  0  0  0  0  0  0  0  0  0
    7.0968   -0.6770   -0.8061 H   0  0  0  0  0  0  0  0  0  0  0  0
  1  7  1  0  0  0  0
  1  8  1  0  0  0  0
  2  9  2  0  0  0  0
  3 14  1  0  0  0  0
  3 31  1  0  0  0  0
  4  5  1  0  0  0  0
  4  6  1  0  0  0  0
  4  9  1  0  0  0  0
  5  7  1  0  0  0  0
  5 15  1  0  0  0  0
  5 16  1  0  0  0  0
  6  8  1  0  0  0  0
  6 17  1  0  0  0  0
  6 18  1  0  0  0  0
  7 19  1  0  0  0  0
  7 20  1  0  0  0  0
  8 21  1  0  0  0  0
  8 22  1  0  0  0  0
  9 11  1  0  0  0  0
 10 12  1  0  0  0  0
 10 13  1  0  0  0  0
 10 23  1  0  0  0  0
 10 24  1  0  0  0  0
 11 13  2  0  0  0  0
 11 25  1  0  0  0  0
 12 14  1  0  0  0  0
 12 26  1  0  0  0  0
 12 27  1  0  0  0  0
 13 28  1  0  0  0  0
 14 29  1  0  0  0  0
 14 30  1  0  0  0  0
M  END
> <PUBCHEM_COMPOUND_CID>
101539213

> <PUBCHEM_CONFORMER_RMSD>
0.8

> <PUBCHEM_CONFORMER_DIVERSEORDER>
1
33
20
6
17
10
26
39
9
34
27
4
23
19
32
3
7
25
16
5
18
37
15
30
24
13
29
22
14
2
28
21
31
36
8
11
35
12
38

> <PUBCHEM_MMFF94_PARTIAL_CHARGES>
16
1 -0.56
10 0.14
11 -0.14
13 -0.29
14 0.28
2 -0.57
25 0.15
28 0.15
3 -0.68
31 0.4
4 -0.66
5 0.3
6 0.3
7 0.28
8 0.28
9 0.62

> <PUBCHEM_EFFECTIVE_ROTOR_COUNT>
6.2

> <PUBCHEM_PHARMACOPHORE_FEATURES>
5
1 1 acceptor
1 2 acceptor
1 3 acceptor
1 3 donor
6 1 4 5 6 7 8 rings

> <PUBCHEM_HEAVY_ATOM_COUNT>
14

> <PUBCHEM_ATOM_DEF_STEREO_COUNT>
0

> <PUBCHEM_ATOM_UDEF_STEREO_COUNT>
0

> <PUBCHEM_BOND_DEF_STEREO_COUNT>
1

> <PUBCHEM_BOND_UDEF_STEREO_COUNT>
0

> <PUBCHEM_ISOTOPIC_ATOM_COUNT>
0

> <PUBCHEM_COMPONENT_COUNT>
1

> <PUBCHEM_CACTVS_TAUTO_COUNT>
1

> <PUBCHEM_CONFORMER_ID>
060D5D8D00000001

> <PUBCHEM_MMFF94_ENERGY>
21.9858

> <PUBCHEM_FEATURE_SELFOVERLAP>
25.373

> <PUBCHEM_SHAPE_FINGERPRINT>
10680689 15 18335143080955262073
10968037 39 18407761451809099942
11046707 91 18413669118994732818
11128504 68 17967256420909197172
11315181 36 18202284706168110016
117890 112 11746934291941049870
12596602 18 13326845643715543094
12714333 28 16153425056488141550
12757275 245 18410574019796474411
13288520 33 18343303664867505982
14123238 8 11167936970438307858
14123255 352 8430321225085461858
14251718 22 18408323302635943862
14251731 8 18411981347371642276
14252887 29 15554455076703380572
14455015 7 16988850466941097190
14943859 89 10881396530520495265
15048467 5 16515398539253556453
15242433 33 18114460080769802826
15242439 84 18273208690410925128
15501527 24 18113340825683476830
17834072 33 18335422387500891884
17834072 8 18335692841654766277
17834076 25 16443063893970790810
17870717 6 18413394224082207479
18186145 218 16443342117393709168
187816 3 17676488345407041120
200 152 18113336410114270088
20374829 77 18411975866961925426
20432913 95 15913332385847951550
20871999 31 18187075144509391893
21267235 1 18410016572070517315
22485316 2 18410851058113861114
2297311 6 18272940414095594236
23402539 116 18260546715043390486
23402655 69 17894627007467658956
23403322 49 18342174470736837899
23557571 272 18200316520341341484
23559900 14 18342165708977356112
23590187 198 13470689239555158452
2916195 48 11458425756195142182
300161 21 17821440258085208786
42 15 12751238108192559880
7062679 117 18409171021695293502

> <PUBCHEM_SHAPE_MULTIPOLES>
265.52
11.93
1.41
0.78
14.83
0.05
-0.01
-2.83
-3.21
-1.42
-0.02
0.19
-0.04
-0.02

> <PUBCHEM_SHAPE_SELFOVERLAP>
515.273

> <PUBCHEM_SHAPE_VOLUME>
159.8

> <PUBCHEM_COORDINATE_TYPE>
2
5
10

$$$$
