5353470
  -OEChem-02172602233D

 35 36  0     0  0  0  0  0  0999 V2000
    5.9660   -1.1104    0.5489 O   0  0  0  0  0  0  0  0  0  0  0  0
    2.2418    1.5201    1.9313 O   0  0  0  0  0  0  0  0  0  0  0  0
    0.9274    2.3225   -1.0593 O   0  0  0  0  0  0  0  0  0  0  0  0
   -6.2565    1.0052    0.2006 O   0  0  0  0  0  0  0  0  0  0  0  0
   -6.3005   -1.7594    0.4721 O   0  0  0  0  0  0  0  0  0  0  0  0
    2.2992    0.5874   -0.2772 C   0  0  0  0  0  0  0  0  0  0  0  0
   -2.7213    0.2065   -0.2771 C   0  0  0  0  0  0  0  0  0  0  0  0
    2.8636    0.7827    0.9686 C   0  0  0  0  0  0  0  0  0  0  0  0
    2.9282   -0.1605   -1.2548 C   0  0  0  0  0  0  0  0  0  0  0  0
    0.9819    1.1892   -0.5950 C   0  0  0  0  0  0  0  0  0  0  0  0
    4.7561   -0.5499    0.2762 C   0  0  0  0  0  0  0  0  0  0  0  0
    4.1037    0.2087    1.2481 C   0  0  0  0  0  0  0  0  0  0  0  0
   -1.4655    0.8912   -0.5401 C   0  0  0  0  0  0  0  0  0  0  0  0
    4.1683   -0.7345   -0.9753 C   0  0  0  0  0  0  0  0  0  0  0  0
   -0.2357    0.3832   -0.3002 C   0  0  0  0  0  0  0  0  0  0  0  0
   -3.9036    0.9377   -0.1625 C   0  0  0  0  0  0  0  0  0  0  0  0
   -2.7435   -1.1814   -0.1402 C   0  0  0  0  0  0  0  0  0  0  0  0
   -5.1082    0.2810    0.0889 C   0  0  0  0  0  0  0  0  0  0  0  0
   -5.1303   -1.1070    0.2258 C   0  0  0  0  0  0  0  0  0  0  0  0
   -3.9481   -1.8381    0.1112 C   0  0  0  0  0  0  0  0  0  0  0  0
    6.5770   -1.8740   -0.4901 C   0  0  0  0  0  0  0  0  0  0  0  0
    2.4759   -0.3073   -2.2314 H   0  0  0  0  0  0  0  0  0  0  0  0
    4.5624    0.3519    2.2233 H   0  0  0  0  0  0  0  0  0  0  0  0
   -1.5586    1.8951   -0.9488 H   0  0  0  0  0  0  0  0  0  0  0  0
    4.6195   -1.3113   -1.7755 H   0  0  0  0  0  0  0  0  0  0  0  0
   -0.0733   -0.5985    0.1297 H   0  0  0  0  0  0  0  0  0  0  0  0
   -3.8991    2.0207   -0.2657 H   0  0  0  0  0  0  0  0  0  0  0  0
   -1.8521   -1.7935   -0.2413 H   0  0  0  0  0  0  0  0  0  0  0  0
   -3.9524   -2.9203    0.2115 H   0  0  0  0  0  0  0  0  0  0  0  0
    1.4072    1.8841    1.5947 H   0  0  0  0  0  0  0  0  0  0  0  0
    5.9757   -2.7515   -0.7515 H   0  0  0  0  0  0  0  0  0  0  0  0
    7.5307   -2.2448   -0.1006 H   0  0  0  0  0  0  0  0  0  0  0  0
    6.8076   -1.2538   -1.3629 H   0  0  0  0  0  0  0  0  0  0  0  0
   -6.9903    0.3905    0.3746 H   0  0  0  0  0  0  0  0  0  0  0  0
   -6.1236   -2.7136    0.5364 H   0  0  0  0  0  0  0  0  0  0  0  0
  1 11  1  0  0  0  0
  1 21  1  0  0  0  0
  2  8  1  0  0  0  0
  2 30  1  0  0  0  0
  3 10  2  0  0  0  0
  4 18  1  0  0  0  0
  4 34  1  0  0  0  0
  5 19  1  0  0  0  0
  5 35  1  0  0  0  0
  6  8  2  0  0  0  0
  6  9  1  0  0  0  0
  6 10  1  0  0  0  0
  7 13  1  0  0  0  0
  7 16  2  0  0  0  0
  7 17  1  0  0  0  0
  8 12  1  0  0  0  0
  9 14  2  0  0  0  0
  9 22  1  0  0  0  0
 10 15  1  0  0  0  0
 11 12  2  0  0  0  0
 11 14  1  0  0  0  0
 12 23  1  0  0  0  0
 13 15  2  0  0  0  0
 13 24  1  0  0  0  0
 14 25  1  0  0  0  0
 15 26  1  0  0  0  0
 16 18  1  0  0  0  0
 16 27  1  0  0  0  0
 17 20  2  0  0  0  0
 17 28  1  0  0  0  0
 18 19  2  0  0  0  0
 19 20  1  0  0  0  0
 20 29  1  0  0  0  0
 21 31  1  0  0  0  0
 21 32  1  0  0  0  0
 21 33  1  0  0  0  0
M  END
> <PUBCHEM_COMPOUND_CID>
5353470

> <PUBCHEM_CONFORMER_RMSD>
0.6

> <PUBCHEM_CONFORMER_DIVERSEORDER>
2
78
45
26
30
63
16
29
9
53
41
65
32
7
31
27
15
1
64
33
73
4
61
70
40
34
62
10
57
37
13
69
28
17
71
75
8
39
5
47
67
35
66
22
3
54
42
24
19
60
59
18
12
79
76
20
52
11
50
23
80
55
72
48
14
36
21
25
58
49
68
51
46
44
56
6
43
74
38
77

> <PUBCHEM_MMFF94_PARTIAL_CHARGES>
32
1 -0.36
10 0.47
11 0.08
12 -0.15
13 -0.18
14 -0.15
15 -0.14
16 -0.15
17 -0.15
18 0.08
19 0.08
2 -0.53
20 -0.15
21 0.28
22 0.15
23 0.15
24 0.15
25 0.15
26 0.15
27 0.15
28 0.15
29 0.15
3 -0.57
30 0.45
34 0.45
35 0.45
4 -0.53
5 -0.53
6 0.09
7 0.03
8 0.08
9 -0.15

> <PUBCHEM_EFFECTIVE_ROTOR_COUNT>
4

> <PUBCHEM_PHARMACOPHORE_FEATURES>
7
1 1 acceptor
1 2 donor
1 3 acceptor
1 4 donor
1 5 donor
6 6 8 9 11 12 14 rings
6 7 16 17 18 19 20 rings

> <PUBCHEM_HEAVY_ATOM_COUNT>
21

> <PUBCHEM_ATOM_DEF_STEREO_COUNT>
0

> <PUBCHEM_ATOM_UDEF_STEREO_COUNT>
0

> <PUBCHEM_BOND_DEF_STEREO_COUNT>
1

> <PUBCHEM_BOND_UDEF_STEREO_COUNT>
0

> <PUBCHEM_ISOTOPIC_ATOM_COUNT>
0

> <PUBCHEM_COMPONENT_COUNT>
1

> <PUBCHEM_CACTVS_TAUTO_COUNT>
64

> <PUBCHEM_CONFORMER_ID>
0051AFFE00000002

> <PUBCHEM_MMFF94_ENERGY>
73.7901

> <PUBCHEM_FEATURE_SELFOVERLAP>
35.526

> <PUBCHEM_SHAPE_FINGERPRINT>
10693767 8 15792281589512654034
11128504 68 16588029025972857022
11524674 6 17560799931341439087
11545043 162 18413385432479376833
11796584 16 18046619015673241542
12236239 1 17603871100024486693
12507557 5 14405177391805712283
12553582 1 17458332057433921965
12596602 18 18272650172916358491
12616971 3 16486968527007741181
13402501 40 18411984633175403662
13668630 136 17313105276282939123
13675066 3 18202282537278281597
13685833 64 18409451392522589186
13968360 50 13334732415426705560
14123256 34 18040442104876078875
14251752 14 17168136802579636621
14341114 176 18060699515717225128
14420673 8 18409169883334281443
14528608 73 9511461113215020119
14739800 52 10231757734833941270
15188451 53 18130217268350301135
15348495 7 17917708058547568315
15475509 35 18264192631762825082
15527383 91 17917708007261167984
15537594 2 17530960263441258003
15788980 27 17989485242902924221
17492 89 18046070629732608699
17844677 252 18410296921365272489
1813 80 17458343048044191125
18222031 100 17748821938359684141
19489759 90 18131632266937753209
19784866 240 18334582338588611445
21033648 29 17560222657629614385
21150785 3 12324244988302422483
21267235 1 18114187462696112443
21637258 2 17822002087258036938
221357 26 13190334673456457302
22950370 63 18040435486115100404
23016692 55 18187368709956126030
23035841 295 18113617863642700010
23402655 69 12540692613583577428
23522609 53 17825137885113920645
23559900 14 18338514243994385257
23622692 88 16343702136555306860
26918003 58 17846497028053650785
2767999 5 12679459781112068211
2838139 119 8358243823243985586
2916195 48 9367337137773441214
3004659 81 17821450162190148718
33382 64 18336827473446828090
351380 3 17676203571895537883
465052 167 18260555562212192935
474 4 13758356699865319237
5104073 3 18339370776859182065
53794403 172 9942933677932622482
5385378 56 18195817271974368515
543368 44 9367351431794075167
559249 180 18334575733656994903
5924683 9 17488734731343502799
59682541 52 12973872677425226152
59755656 215 18336542703517953999
7970288 3 18186800292077450402
960060 61 15719386256874736309
9841814 1 17676757781881292160

> <PUBCHEM_SHAPE_MULTIPOLES>
402.82
16.4
1.82
1.11
3.84
0.19
0.21
8.64
1.95
0.27
-0.05
-1.29
-0.31
0.89

> <PUBCHEM_SHAPE_SELFOVERLAP>
869.106

> <PUBCHEM_SHAPE_VOLUME>
221.6

> <PUBCHEM_COORDINATE_TYPE>
2
5
10

$$$$
