44259771
  -OEChem-02172602363D

 41 43  0     0  0  0  0  0  0999 V2000
    0.6936   -0.8353   -0.0199 O   0  0  0  0  0  0  0  0  0  0  0  0
   -3.2288    1.9995   -0.1374 O   0  0  0  0  0  0  0  0  0  0  0  0
   -4.7958   -0.2322   -0.0754 O   0  0  0  0  0  0  0  0  0  0  0  0
   -3.6452   -2.7447    0.0148 O   0  0  0  0  0  0  0  0  0  0  0  0
    1.9543    2.6264   -0.1432 O   0  0  0  0  0  0  0  0  0  0  0  0
   -0.8080    2.9501   -0.1595 O   0  0  0  0  0  0  0  0  0  0  0  0
    6.9856   -1.0787    0.0268 O   0  0  0  0  0  0  0  0  0  0  0  0
   -1.2385    0.6327   -0.0798 C   0  0  0  0  0  0  0  0  0  0  0  0
   -0.6626   -0.6348   -0.0349 C   0  0  0  0  0  0  0  0  0  0  0  0
   -2.6281    0.7763   -0.0939 C   0  0  0  0  0  0  0  0  0  0  0  0
    1.5261    0.2726   -0.0394 C   0  0  0  0  0  0  0  0  0  0  0  0
   -0.3601    1.8122   -0.1141 C   0  0  0  0  0  0  0  0  0  0  0  0
   -3.4377   -0.3598   -0.0621 C   0  0  0  0  0  0  0  0  0  0  0  0
   -1.4741   -1.7693   -0.0034 C   0  0  0  0  0  0  0  0  0  0  0  0
    1.0986    1.5473   -0.0918 C   0  0  0  0  0  0  0  0  0  0  0  0
   -2.8622   -1.6301   -0.0168 C   0  0  0  0  0  0  0  0  0  0  0  0
    2.9563   -0.0828   -0.0214 C   0  0  0  0  0  0  0  0  0  0  0  0
    3.7762    0.3768    1.0093 C   0  0  0  0  0  0  0  0  0  0  0  0
    3.4903   -0.8776   -1.0356 C   0  0  0  0  0  0  0  0  0  0  0  0
    5.1301    0.0419    1.0256 C   0  0  0  0  0  0  0  0  0  0  0  0
    4.8443   -1.2125   -1.0194 C   0  0  0  0  0  0  0  0  0  0  0  0
    5.6641   -0.7528    0.0111 C   0  0  0  0  0  0  0  0  0  0  0  0
   -3.5224    2.6204    1.1122 C   0  0  0  0  0  0  0  0  0  0  0  0
   -5.4304   -0.2131   -1.3518 C   0  0  0  0  0  0  0  0  0  0  0  0
   -4.0253   -3.2328    1.2999 C   0  0  0  0  0  0  0  0  0  0  0  0
   -1.0268   -2.7596    0.0310 H   0  0  0  0  0  0  0  0  0  0  0  0
    3.3781    0.9908    1.8136 H   0  0  0  0  0  0  0  0  0  0  0  0
    2.8659   -1.2419   -1.8478 H   0  0  0  0  0  0  0  0  0  0  0  0
    5.7635    0.4017    1.8318 H   0  0  0  0  0  0  0  0  0  0  0  0
    5.2483   -1.8316   -1.8159 H   0  0  0  0  0  0  0  0  0  0  0  0
    1.4080    3.4305   -0.1818 H   0  0  0  0  0  0  0  0  0  0  0  0
   -3.7750    3.6674    0.9235 H   0  0  0  0  0  0  0  0  0  0  0  0
   -2.6654    2.5833    1.7924 H   0  0  0  0  0  0  0  0  0  0  0  0
   -4.3841    2.1324    1.5779 H   0  0  0  0  0  0  0  0  0  0  0  0
   -6.5072   -0.1028   -1.1969 H   0  0  0  0  0  0  0  0  0  0  0  0
   -5.2486   -1.1507   -1.8866 H   0  0  0  0  0  0  0  0  0  0  0  0
   -5.0747    0.6336   -1.9473 H   0  0  0  0  0  0  0  0  0  0  0  0
   -4.6529   -4.1170    1.1585 H   0  0  0  0  0  0  0  0  0  0  0  0
   -4.6016   -2.4780    1.8442 H   0  0  0  0  0  0  0  0  0  0  0  0
   -3.1411   -3.5198    1.8778 H   0  0  0  0  0  0  0  0  0  0  0  0
    7.1827   -1.6321   -0.7484 H   0  0  0  0  0  0  0  0  0  0  0  0
  1  9  1  0  0  0  0
  1 11  1  0  0  0  0
  2 10  1  0  0  0  0
  2 23  1  0  0  0  0
  3 13  1  0  0  0  0
  3 24  1  0  0  0  0
  4 16  1  0  0  0  0
  4 25  1  0  0  0  0
  5 15  1  0  0  0  0
  5 31  1  0  0  0  0
  6 12  2  0  0  0  0
  7 22  1  0  0  0  0
  7 41  1  0  0  0  0
  8  9  1  0  0  0  0
  8 10  2  0  0  0  0
  8 12  1  0  0  0  0
  9 14  2  0  0  0  0
 10 13  1  0  0  0  0
 11 15  2  0  0  0  0
 11 17  1  0  0  0  0
 12 15  1  0  0  0  0
 13 16  2  0  0  0  0
 14 16  1  0  0  0  0
 14 26  1  0  0  0  0
 17 18  2  0  0  0  0
 17 19  1  0  0  0  0
 18 20  1  0  0  0  0
 18 27  1  0  0  0  0
 19 21  2  0  0  0  0
 19 28  1  0  0  0  0
 20 22  2  0  0  0  0
 20 29  1  0  0  0  0
 21 22  1  0  0  0  0
 21 30  1  0  0  0  0
 23 32  1  0  0  0  0
 23 33  1  0  0  0  0
 23 34  1  0  0  0  0
 24 35  1  0  0  0  0
 24 36  1  0  0  0  0
 24 37  1  0  0  0  0
 25 38  1  0  0  0  0
 25 39  1  0  0  0  0
 25 40  1  0  0  0  0
M  END
> <PUBCHEM_COMPOUND_CID>
44259771

> <PUBCHEM_CONFORMER_RMSD>
0.8

> <PUBCHEM_CONFORMER_DIVERSEORDER>
1
3
2

> <PUBCHEM_MMFF94_PARTIAL_CHARGES>
32
1 -0.16
10 0.08
11 0.05
12 0.47
13 0.08
14 -0.15
15 0.09
16 0.08
17 0.03
18 -0.15
19 -0.15
2 -0.36
20 -0.15
21 -0.15
22 0.08
23 0.28
24 0.28
25 0.28
26 0.15
27 0.15
28 0.15
29 0.15
3 -0.36
30 0.15
31 0.45
4 -0.36
41 0.45
5 -0.53
6 -0.57
7 -0.53
8 0.09
9 0.08

> <PUBCHEM_EFFECTIVE_ROTOR_COUNT>
4

> <PUBCHEM_PHARMACOPHORE_FEATURES>
10
1 1 acceptor
1 2 acceptor
1 3 acceptor
1 4 acceptor
1 5 donor
1 6 acceptor
1 7 donor
6 1 8 9 11 12 15 rings
6 17 18 19 20 21 22 rings
6 8 9 10 13 14 16 rings

> <PUBCHEM_HEAVY_ATOM_COUNT>
25

> <PUBCHEM_ATOM_DEF_STEREO_COUNT>
0

> <PUBCHEM_ATOM_UDEF_STEREO_COUNT>
0

> <PUBCHEM_BOND_DEF_STEREO_COUNT>
0

> <PUBCHEM_BOND_UDEF_STEREO_COUNT>
0

> <PUBCHEM_ISOTOPIC_ATOM_COUNT>
0

> <PUBCHEM_COMPONENT_COUNT>
1

> <PUBCHEM_CACTVS_TAUTO_COUNT>
11

> <PUBCHEM_CONFORMER_ID>
02A359BB00000001

> <PUBCHEM_MMFF94_ENERGY>
106.9434

> <PUBCHEM_FEATURE_SELFOVERLAP>
50.798

> <PUBCHEM_SHAPE_FINGERPRINT>
10319926 262 18269536279632069162
10411042 1 18266179624835007659
10493431 412 18126294039016517585
10622 236 16980671449040964279
11315181 36 18260551130343636618
12011746 2 18409720743244291573
12236239 1 17531530889418777190
12616971 3 17531260426464115196
12788726 201 18115300077467340264
13009979 54 18187376475062052229
13140716 1 18411142462860203673
13288520 33 18411136926609929052
13402501 40 18273215262323064758
13540713 4 18045772653807447247
13544653 18 17989489645012228954
13782708 43 17704069586675575126
13862211 1 18410568474761391870
14790565 3 17476649676239866305
15042514 8 18409174303008187721
15196674 1 18264768929492737509
17138139 8 17241601908972337610
17492 89 18120938562236932643
17844677 252 18342181089724332048
1813 80 17749109985179696428
18927931 339 18342460352281591791
19141452 34 17988640830430783799
200 152 17131827651275046206
21033648 29 17417797427525861610
21065201 7 18410571752412282522
21236236 1 18271524204459155233
21267235 1 18409735070817503195
221490 88 18264212585019656394
2297311 6 18412833465062948614
23366157 5 17897447413944643108
23402539 116 18343014458897129685
23557571 272 18272935986121384252
23559900 14 18338790238270995025
3004659 81 18113334241356265366
312423 11 18116164431019253836
335352 9 18409446995119487829
3383291 50 18409729599678775115
4073 2 18341616984588420266
4214541 1 18413108334005645352
5104073 3 18340210802961892960
59755656 215 18336541634013282855
8863177 126 17606978453514495291
9709674 26 18344148085376070308

> <PUBCHEM_SHAPE_MULTIPOLES>
473.4
12.83
2.94
0.98
12.29
0.34
0.05
-5.74
-0.17
-3.73
0.69
-0.15
-0.19
0.72

> <PUBCHEM_SHAPE_SELFOVERLAP>
1040.673

> <PUBCHEM_SHAPE_VOLUME>
255.8

> <PUBCHEM_COORDINATE_TYPE>
2
5
10

$$$$
