102146938
  -OEChem-02172602443D

 49 51  0     1  0  0  0  0  0999 V2000
    0.6649    0.5151   -0.3638 O   0  0  0  0  0  0  0  0  0  0  0  0
   -2.7779    0.7077   -1.6165 O   0  0  0  0  0  0  0  0  0  0  0  0
   -2.1835   -1.7310   -0.3946 O   0  0  0  0  0  0  0  0  0  0  0  0
    0.0068   -2.1354    0.2257 N   0  0  0  0  0  0  0  0  0  0  0  0
   -0.7303    0.2088   -0.2583 C   0  0  2  0  0  0  0  0  0  0  0  0
    1.4107   -1.7139    0.1196 C   0  0  2  0  0  0  0  0  0  0  0  0
    1.5233   -0.2328    0.4946 C   0  0  1  0  0  0  0  0  0  0  0  0
   -1.3597    0.8470   -1.5354 C   0  0  1  0  0  0  0  0  0  0  0  0
   -1.2620    0.8857    1.0399 C   0  0  0  0  0  0  0  0  0  0  0  0
   -1.0426   -1.3114   -0.1822 C   0  0  0  0  0  0  0  0  0  0  0  0
    2.9426    0.3028    0.4387 C   0  0  0  0  0  0  0  0  0  0  0  0
    1.9494   -2.0374   -1.2805 C   0  0  0  0  0  0  0  0  0  0  0  0
   -0.8006    0.2492   -2.8307 C   0  0  0  0  0  0  0  0  0  0  0  0
   -2.7265    0.7875    1.3614 C   0  0  0  0  0  0  0  0  0  0  0  0
   -0.2464   -3.5416    0.5155 C   0  0  0  0  0  0  0  0  0  0  0  0
   -3.5060    1.6516   -0.8385 C   0  0  0  0  0  0  0  0  0  0  0  0
   -3.7377    1.1226    0.5443 C   0  0  0  0  0  0  0  0  0  0  0  0
    3.7556    0.2439    1.5705 C   0  0  0  0  0  0  0  0  0  0  0  0
    3.4335    0.8541   -0.7448 C   0  0  0  0  0  0  0  0  0  0  0  0
   -5.1086    0.9923    0.9780 C   0  0  0  0  0  0  0  0  0  0  0  0
    5.0598    0.7363    1.5190 C   0  0  0  0  0  0  0  0  0  0  0  0
    4.7375    1.3464   -0.7964 C   0  0  0  0  0  0  0  0  0  0  0  0
    5.5507    1.2876    0.3355 C   0  0  0  0  0  0  0  0  0  0  0  0
   -5.5529   -0.0352    1.6991 C   0  0  0  0  0  0  0  0  0  0  0  0
    1.9859   -2.3003    0.8481 H   0  0  0  0  0  0  0  0  0  0  0  0
    1.1844   -0.0954    1.5274 H   0  0  0  0  0  0  0  0  0  0  0  0
   -1.0979    1.9142   -1.5666 H   0  0  0  0  0  0  0  0  0  0  0  0
   -0.9664    1.9437    1.0511 H   0  0  0  0  0  0  0  0  0  0  0  0
   -0.7467    0.4525    1.9059 H   0  0  0  0  0  0  0  0  0  0  0  0
    1.4507   -1.4532   -2.0577 H   0  0  0  0  0  0  0  0  0  0  0  0
    1.7923   -3.0938   -1.5239 H   0  0  0  0  0  0  0  0  0  0  0  0
    3.0262   -1.8582   -1.3484 H   0  0  0  0  0  0  0  0  0  0  0  0
   -1.0139   -0.8222   -2.9041 H   0  0  0  0  0  0  0  0  0  0  0  0
    0.2783    0.4045   -2.9170 H   0  0  0  0  0  0  0  0  0  0  0  0
   -1.2787    0.7184   -3.6982 H   0  0  0  0  0  0  0  0  0  0  0  0
   -2.9380    0.4428    2.3725 H   0  0  0  0  0  0  0  0  0  0  0  0
    0.3248   -3.8348    1.4006 H   0  0  0  0  0  0  0  0  0  0  0  0
    0.0603   -4.1455   -0.3425 H   0  0  0  0  0  0  0  0  0  0  0  0
   -1.3084   -3.7179    0.7072 H   0  0  0  0  0  0  0  0  0  0  0  0
   -3.0155    2.6325   -0.8179 H   0  0  0  0  0  0  0  0  0  0  0  0
   -4.4608    1.7980   -1.3568 H   0  0  0  0  0  0  0  0  0  0  0  0
    3.3860   -0.1855    2.4979 H   0  0  0  0  0  0  0  0  0  0  0  0
    2.8211    0.9073   -1.6407 H   0  0  0  0  0  0  0  0  0  0  0  0
   -5.8029    1.7717    0.6773 H   0  0  0  0  0  0  0  0  0  0  0  0
    5.6931    0.6899    2.4000 H   0  0  0  0  0  0  0  0  0  0  0  0
    5.1204    1.7747   -1.7182 H   0  0  0  0  0  0  0  0  0  0  0  0
    6.5662    1.6706    0.2950 H   0  0  0  0  0  0  0  0  0  0  0  0
   -6.5981   -0.0805    1.9885 H   0  0  0  0  0  0  0  0  0  0  0  0
   -4.9202   -0.8593    2.0108 H   0  0  0  0  0  0  0  0  0  0  0  0
  1  5  1  0  0  0  0
  1  7  1  0  0  0  0
  2  8  1  0  0  0  0
  2 16  1  0  0  0  0
  3 10  2  0  0  0  0
  4  6  1  0  0  0  0
  4 10  1  0  0  0  0
  4 15  1  0  0  0  0
  5  8  1  0  0  0  0
  5  9  1  0  0  0  0
  5 10  1  0  0  0  0
  6  7  1  0  0  0  0
  6 12  1  0  0  0  0
  6 25  1  0  0  0  0
  7 11  1  0  0  0  0
  7 26  1  0  0  0  0
  8 13  1  0  0  0  0
  8 27  1  0  0  0  0
  9 14  1  0  0  0  0
  9 28  1  0  0  0  0
  9 29  1  0  0  0  0
 11 18  2  0  0  0  0
 11 19  1  0  0  0  0
 12 30  1  0  0  0  0
 12 31  1  0  0  0  0
 12 32  1  0  0  0  0
 13 33  1  0  0  0  0
 13 34  1  0  0  0  0
 13 35  1  0  0  0  0
 14 17  2  0  0  0  0
 14 36  1  0  0  0  0
 15 37  1  0  0  0  0
 15 38  1  0  0  0  0
 15 39  1  0  0  0  0
 16 17  1  0  0  0  0
 16 40  1  0  0  0  0
 16 41  1  0  0  0  0
 17 20  1  0  0  0  0
 18 21  1  0  0  0  0
 18 42  1  0  0  0  0
 19 22  2  0  0  0  0
 19 43  1  0  0  0  0
 20 24  2  0  0  0  0
 20 44  1  0  0  0  0
 21 23  2  0  0  0  0
 21 45  1  0  0  0  0
 22 23  1  0  0  0  0
 22 46  1  0  0  0  0
 23 47  1  0  0  0  0
 24 48  1  0  0  0  0
 24 49  1  0  0  0  0
M  END
> <PUBCHEM_COMPOUND_CID>
102146938

> <PUBCHEM_CONFORMER_RMSD>
0.6

> <PUBCHEM_CONFORMER_DIVERSEORDER>
1
6
8
7
10
2
3
9
4
5

> <PUBCHEM_MMFF94_PARTIAL_CHARGES>
31
1 -0.56
10 0.57
11 -0.14
14 -0.29
15 0.3
16 0.42
17 -0.14
18 -0.15
19 -0.15
2 -0.56
20 -0.15
21 -0.15
22 -0.15
23 -0.15
24 -0.3
3 -0.57
36 0.15
4 -0.66
42 0.15
43 0.15
44 0.15
45 0.15
46 0.15
47 0.15
48 0.15
49 0.15
5 0.34
6 0.3
7 0.42
8 0.28
9 0.14

> <PUBCHEM_EFFECTIVE_ROTOR_COUNT>
3.6

> <PUBCHEM_PHARMACOPHORE_FEATURES>
7
1 1 acceptor
1 2 acceptor
1 24 hydrophobe
1 3 acceptor
6 1 4 5 6 7 10 rings
6 11 18 19 21 22 23 rings
7 2 5 8 9 14 16 17 rings

> <PUBCHEM_HEAVY_ATOM_COUNT>
24

> <PUBCHEM_ATOM_DEF_STEREO_COUNT>
4

> <PUBCHEM_ATOM_UDEF_STEREO_COUNT>
0

> <PUBCHEM_BOND_DEF_STEREO_COUNT>
0

> <PUBCHEM_BOND_UDEF_STEREO_COUNT>
0

> <PUBCHEM_ISOTOPIC_ATOM_COUNT>
0

> <PUBCHEM_COMPONENT_COUNT>
1

> <PUBCHEM_CACTVS_TAUTO_COUNT>
1

> <PUBCHEM_CONFORMER_ID>
0616A37A00000001

> <PUBCHEM_MMFF94_ENERGY>
80.9905

> <PUBCHEM_FEATURE_SELFOVERLAP>
35.526

> <PUBCHEM_SHAPE_FINGERPRINT>
10165383 225 18410023138764270032
10493431 412 18411141350552844425
107951 10 16271927133621416213
11578080 2 18120097178645001101
12403259 118 17530959172572669476
12403259 415 18262805047027637749
12403814 3 17603857923033225957
12422481 6 17748829587975740221
12633257 1 18334574685199756028
12788726 201 17831020496325257850
12839892 36 18114190756630229667
12892183 10 16153975873238254864
12895837 130 16844717781084608152
13140716 1 18268708492477222872
13544653 18 14056724551676546665
13583140 156 16443609243016468372
14341114 328 18060423478501173825
14713325 29 16415196827947504261
14787075 74 18272932739373937651
15183329 4 14476968860800893048
15309172 13 18333445430680569676
15342168 16 18409733954057558012
15534591 1 17775563134925670623
16945 1 18119246164991891815
18785283 64 18263645065749235042
19784866 240 12468360141506940977
19862831 5 13254795728767572436
200 152 12468356855888646689
20261772 1 17894910746055749444
204376 136 18409446972858680538
20600515 1 16226344646099169005
21202864 24 18262242226086986571
21756936 100 17989202650786434248
22079108 93 18272091616899252825
22182313 1 17969220036348093599
22224240 67 18411141355449133889
23227448 37 18270683189580263897
23559900 14 16445323257174944243
2637199 183 16702023045608226441
2838139 119 17132111325586652128
3004659 81 12895078392797896492
314173 85 10665227042725716328
34934 24 17632292354753318417
392239 28 18200324320186041873
4340502 62 18341341023980270779
458136 41 18339080384760237467
469060 322 17968652830636229407
474 4 18131064952833595424
5104073 3 18190470355191478985
5283173 99 11743846824140099690
57527293 21 17313392197145922465
59755656 520 18343582949764563842
633830 44 17986679156069068373
6442390 28 18337684061033563995
6913067 236 17967811639852978655

> <PUBCHEM_SHAPE_MULTIPOLES>
471.32
10.52
2.33
1.86
2.23
2.59
0.8
-6.82
-4.69
0.1
-0.04
-0.66
-0.36
0.26

> <PUBCHEM_SHAPE_SELFOVERLAP>
997.186

> <PUBCHEM_SHAPE_VOLUME>
259.8

> <PUBCHEM_COORDINATE_TYPE>
2
5
10

$$$$
