101539209
  -OEChem-02172602503D

 20 20  0     1  0  0  0  0  0999 V2000
   -0.8151    0.9293    0.6146 O   0  0  0  0  0  0  0  0  0  0  0  0
    0.9601    1.5099   -0.8053 O   0  0  0  0  0  0  0  0  0  0  0  0
    0.9992   -0.5731    0.4463 C   0  0  2  0  0  0  0  0  0  0  0  0
   -0.1988   -1.2000   -0.2401 C   0  0  0  0  0  0  0  0  0  0  0  0
   -1.3411   -0.3827    0.3441 C   0  0  2  0  0  0  0  0  0  0  0  0
    0.6104    0.9029    0.4330 C   0  0  2  0  0  0  0  0  0  0  0  0
    2.3244   -0.9119   -0.2128 C   0  0  0  0  0  0  0  0  0  0  0  0
   -2.5392   -0.2745   -0.5797 C   0  0  0  0  0  0  0  0  0  0  0  0
    1.0165   -0.9214    1.4881 H   0  0  0  0  0  0  0  0  0  0  0  0
   -0.1352   -1.0686   -1.3275 H   0  0  0  0  0  0  0  0  0  0  0  0
   -0.3041   -2.2696   -0.0350 H   0  0  0  0  0  0  0  0  0  0  0  0
   -1.6545   -0.8061    1.3057 H   0  0  0  0  0  0  0  0  0  0  0  0
    1.0945    1.4540    1.2459 H   0  0  0  0  0  0  0  0  0  0  0  0
    2.3333   -0.6499   -1.2758 H   0  0  0  0  0  0  0  0  0  0  0  0
    2.5253   -1.9857   -0.1360 H   0  0  0  0  0  0  0  0  0  0  0  0
    3.1455   -0.3780    0.2763 H   0  0  0  0  0  0  0  0  0  0  0  0
   -3.3213    0.3380   -0.1186 H   0  0  0  0  0  0  0  0  0  0  0  0
   -2.9544   -1.2606   -0.8079 H   0  0  0  0  0  0  0  0  0  0  0  0
   -2.2681    0.2205   -1.5187 H   0  0  0  0  0  0  0  0  0  0  0  0
    1.0130    2.4679   -0.6486 H   0  0  0  0  0  0  0  0  0  0  0  0
  1  5  1  0  0  0  0
  1  6  1  0  0  0  0
  2  6  1  0  0  0  0
  2 20  1  0  0  0  0
  3  4  1  0  0  0  0
  3  6  1  0  0  0  0
  3  7  1  0  0  0  0
  3  9  1  0  0  0  0
  4  5  1  0  0  0  0
  4 10  1  0  0  0  0
  4 11  1  0  0  0  0
  5  8  1  0  0  0  0
  5 12  1  0  0  0  0
  6 13  1  0  0  0  0
  7 14  1  0  0  0  0
  7 15  1  0  0  0  0
  7 16  1  0  0  0  0
  8 17  1  0  0  0  0
  8 18  1  0  0  0  0
  8 19  1  0  0  0  0
M  END
> <PUBCHEM_COMPOUND_CID>
101539209

> <PUBCHEM_CONFORMER_RMSD>
0.4

> <PUBCHEM_CONFORMER_DIVERSEORDER>
1
2

> <PUBCHEM_MMFF94_PARTIAL_CHARGES>
5
1 -0.56
2 -0.68
20 0.4
5 0.28
6 0.56

> <PUBCHEM_EFFECTIVE_ROTOR_COUNT>
1

> <PUBCHEM_PHARMACOPHORE_FEATURES>
4
1 1 acceptor
1 2 acceptor
1 2 donor
5 1 3 4 5 6 rings

> <PUBCHEM_HEAVY_ATOM_COUNT>
8

> <PUBCHEM_ATOM_DEF_STEREO_COUNT>
3

> <PUBCHEM_ATOM_UDEF_STEREO_COUNT>
0

> <PUBCHEM_BOND_DEF_STEREO_COUNT>
0

> <PUBCHEM_BOND_UDEF_STEREO_COUNT>
0

> <PUBCHEM_ISOTOPIC_ATOM_COUNT>
0

> <PUBCHEM_COMPONENT_COUNT>
1

> <PUBCHEM_CACTVS_TAUTO_COUNT>
1

> <PUBCHEM_CONFORMER_ID>
060D5D8900000001

> <PUBCHEM_MMFF94_ENERGY>
11.7268

> <PUBCHEM_FEATURE_SELFOVERLAP>
20.338

> <PUBCHEM_SHAPE_FINGERPRINT>
137420 1 17475295301172870778
14128692 85 18201435904233864495
16714656 1 18268998583316240106
18185500 45 18412826858717763290
21040471 1 18051686938952185835
23552423 10 18337107972590197567
24536 1 18189325943495340443
29004967 10 18187366510516230010
5084963 1 18410007762754853139

> <PUBCHEM_SHAPE_MULTIPOLES>
152.9
2.77
1.38
0.82
0.61
0.27
0.04
-0.72
0.49
-0.37
0.14
0.02
0.11
-0.14

> <PUBCHEM_SHAPE_SELFOVERLAP>
297.14

> <PUBCHEM_SHAPE_VOLUME>
94.6

> <PUBCHEM_COORDINATE_TYPE>
2
5
10

$$$$
