101231687
  -OEChem-02172602503D

 67 69  0     1  0  0  0  0  0999 V2000
   -0.0119   -2.1773    0.2764 P   0  0  1  0  0  0  0  0  0  0  0  0
    0.2878   -0.7628    2.3988 O   0  0  0  0  0  0  0  0  0  0  0  0
   -0.0809   -3.3624    1.3769 O   0  0  0  0  0  0  0  0  0  0  0  0
   -1.3650   -1.7992   -0.2570 O   0  0  0  0  0  0  0  0  0  0  0  0
   -0.6609    0.9267    0.2195 N   0  0  0  0  0  0  0  0  0  0  0  0
    0.7441    0.5450    0.4016 C   0  0  2  0  0  0  0  0  0  0  0  0
    0.8429   -0.8286    1.0886 C   0  0  2  0  0  0  0  0  0  0  0  0
    1.4428    1.6702    1.1921 C   0  0  0  0  0  0  0  0  0  0  0  0
   -1.1954    1.4952    1.4544 C   0  0  0  0  0  0  0  0  0  0  0  0
   -0.7885    1.8770   -0.8825 C   0  0  0  0  0  0  0  0  0  0  0  0
    1.0733   -2.8004   -0.9952 C   0  0  0  0  0  0  0  0  0  0  0  0
    2.9378    1.7158    0.9832 C   0  0  0  0  0  0  0  0  0  0  0  0
   -2.6971    1.4032    1.5100 C   0  0  0  0  0  0  0  0  0  0  0  0
   -0.7116    1.1951   -2.2226 C   0  0  0  0  0  0  0  0  0  0  0  0
    3.7819    0.9860    1.8202 C   0  0  0  0  0  0  0  0  0  0  0  0
    3.4746    2.4879   -0.0470 C   0  0  0  0  0  0  0  0  0  0  0  0
    0.3654   -3.9238   -1.6740 C   0  0  0  0  0  0  0  0  0  0  0  0
    1.0762   -3.8300    2.0453 C   0  0  0  0  0  0  0  0  0  0  0  0
   -3.4790    2.4403    1.0016 C   0  0  0  0  0  0  0  0  0  0  0  0
    0.5222    1.0305   -2.8520 C   0  0  0  0  0  0  0  0  0  0  0  0
   -3.3064    0.2806    2.0702 C   0  0  0  0  0  0  0  0  0  0  0  0
   -1.8747    0.7280   -2.8348 C   0  0  0  0  0  0  0  0  0  0  0  0
    5.1627    1.0282    1.6271 C   0  0  0  0  0  0  0  0  0  0  0  0
    4.8553    2.5302   -0.2401 C   0  0  0  0  0  0  0  0  0  0  0  0
    0.6802   -4.9327    3.0039 C   0  0  0  0  0  0  0  0  0  0  0  0
    5.6994    1.8004    0.5970 C   0  0  0  0  0  0  0  0  0  0  0  0
   -4.8703    2.3548    1.0533 C   0  0  0  0  0  0  0  0  0  0  0  0
    0.5931    0.3987   -4.0937 C   0  0  0  0  0  0  0  0  0  0  0  0
   -4.6976    0.1950    2.1220 C   0  0  0  0  0  0  0  0  0  0  0  0
   -1.8039    0.0963   -4.0763 C   0  0  0  0  0  0  0  0  0  0  0  0
    0.0531   -3.9320   -2.9744 C   0  0  0  0  0  0  0  0  0  0  0  0
   -5.4796    1.2322    1.6136 C   0  0  0  0  0  0  0  0  0  0  0  0
   -0.5700   -0.0684   -4.7058 C   0  0  0  0  0  0  0  0  0  0  0  0
    1.2473    0.3951   -0.5527 H   0  0  0  0  0  0  0  0  0  0  0  0
    1.8936   -1.1198    1.1883 H   0  0  0  0  0  0  0  0  0  0  0  0
    1.2638    1.6091    2.2728 H   0  0  0  0  0  0  0  0  0  0  0  0
    1.0952    2.6708    0.9065 H   0  0  0  0  0  0  0  0  0  0  0  0
   -0.9342    2.5581    1.5662 H   0  0  0  0  0  0  0  0  0  0  0  0
   -0.8527    1.0424    2.3847 H   0  0  0  0  0  0  0  0  0  0  0  0
   -1.7528    2.3899   -0.8800 H   0  0  0  0  0  0  0  0  0  0  0  0
   -0.0565    2.6935   -0.8472 H   0  0  0  0  0  0  0  0  0  0  0  0
    1.2964   -1.9915   -1.6991 H   0  0  0  0  0  0  0  0  0  0  0  0
    2.0302   -3.1409   -0.5917 H   0  0  0  0  0  0  0  0  0  0  0  0
    0.9729   -0.4128    2.9929 H   0  0  0  0  0  0  0  0  0  0  0  0
    3.3780    0.3833    2.6291 H   0  0  0  0  0  0  0  0  0  0  0  0
    2.8282    3.0592   -0.7079 H   0  0  0  0  0  0  0  0  0  0  0  0
    0.1057   -4.7911   -1.0732 H   0  0  0  0  0  0  0  0  0  0  0  0
    1.7914   -4.2243    1.3194 H   0  0  0  0  0  0  0  0  0  0  0  0
    1.5509   -3.0177    2.6006 H   0  0  0  0  0  0  0  0  0  0  0  0
   -3.0280    3.3395    0.5914 H   0  0  0  0  0  0  0  0  0  0  0  0
    1.4367    1.4208   -2.4155 H   0  0  0  0  0  0  0  0  0  0  0  0
   -2.7092   -0.5360    2.4673 H   0  0  0  0  0  0  0  0  0  0  0  0
   -2.8421    0.8463   -2.3538 H   0  0  0  0  0  0  0  0  0  0  0  0
    5.8199    0.4606    2.2793 H   0  0  0  0  0  0  0  0  0  0  0  0
    5.2732    3.1308   -1.0428 H   0  0  0  0  0  0  0  0  0  0  0  0
   -0.0444   -4.5637    3.7372 H   0  0  0  0  0  0  0  0  0  0  0  0
    0.1983   -5.7562    2.4665 H   0  0  0  0  0  0  0  0  0  0  0  0
    1.5534   -5.3213    3.5354 H   0  0  0  0  0  0  0  0  0  0  0  0
    6.7745    1.8334    0.4465 H   0  0  0  0  0  0  0  0  0  0  0  0
   -5.4793    3.1657    0.6644 H   0  0  0  0  0  0  0  0  0  0  0  0
    1.5527    0.2777   -4.5876 H   0  0  0  0  0  0  0  0  0  0  0  0
   -5.1721   -0.6794    2.5578 H   0  0  0  0  0  0  0  0  0  0  0  0
   -2.7093   -0.2686   -4.5525 H   0  0  0  0  0  0  0  0  0  0  0  0
   -0.4563   -4.7838   -3.4115 H   0  0  0  0  0  0  0  0  0  0  0  0
    0.2967   -3.0975   -3.6222 H   0  0  0  0  0  0  0  0  0  0  0  0
   -6.5629    1.1663    1.6554 H   0  0  0  0  0  0  0  0  0  0  0  0
   -0.5150   -0.5596   -5.6729 H   0  0  0  0  0  0  0  0  0  0  0  0
  1  3  1  0  0  0  0
  1  4  2  0  0  0  0
  1  7  1  0  0  0  0
  1 11  1  0  0  0  0
  2  7  1  0  0  0  0
  2 44  1  0  0  0  0
  3 18  1  0  0  0  0
  5  6  1  0  0  0  0
  5  9  1  0  0  0  0
  5 10  1  0  0  0  0
  6  7  1  0  0  0  0
  6  8  1  0  0  0  0
  6 34  1  0  0  0  0
  7 35  1  0  0  0  0
  8 12  1  0  0  0  0
  8 36  1  0  0  0  0
  8 37  1  0  0  0  0
  9 13  1  0  0  0  0
  9 38  1  0  0  0  0
  9 39  1  0  0  0  0
 10 14  1  0  0  0  0
 10 40  1  0  0  0  0
 10 41  1  0  0  0  0
 11 17  1  0  0  0  0
 11 42  1  0  0  0  0
 11 43  1  0  0  0  0
 12 15  2  0  0  0  0
 12 16  1  0  0  0  0
 13 19  2  0  0  0  0
 13 21  1  0  0  0  0
 14 20  2  0  0  0  0
 14 22  1  0  0  0  0
 15 23  1  0  0  0  0
 15 45  1  0  0  0  0
 16 24  2  0  0  0  0
 16 46  1  0  0  0  0
 17 31  2  0  0  0  0
 17 47  1  0  0  0  0
 18 25  1  0  0  0  0
 18 48  1  0  0  0  0
 18 49  1  0  0  0  0
 19 27  1  0  0  0  0
 19 50  1  0  0  0  0
 20 28  1  0  0  0  0
 20 51  1  0  0  0  0
 21 29  2  0  0  0  0
 21 52  1  0  0  0  0
 22 30  2  0  0  0  0
 22 53  1  0  0  0  0
 23 26  2  0  0  0  0
 23 54  1  0  0  0  0
 24 26  1  0  0  0  0
 24 55  1  0  0  0  0
 25 56  1  0  0  0  0
 25 57  1  0  0  0  0
 25 58  1  0  0  0  0
 26 59  1  0  0  0  0
 27 32  2  0  0  0  0
 27 60  1  0  0  0  0
 28 33  2  0  0  0  0
 28 61  1  0  0  0  0
 29 32  1  0  0  0  0
 29 62  1  0  0  0  0
 30 33  1  0  0  0  0
 30 63  1  0  0  0  0
 31 64  1  0  0  0  0
 31 65  1  0  0  0  0
 32 66  1  0  0  0  0
 33 67  1  0  0  0  0
M  END
> <PUBCHEM_COMPOUND_CID>
101231687

> <PUBCHEM_CONFORMER_RMSD>
1.2

> <PUBCHEM_CONFORMER_DIVERSEORDER>
1
19
25
17
24
21
15
20
10
18
14
22
6
13
11
16
8
7
12
3
9
23
5
4
2

> <PUBCHEM_MMFF94_PARTIAL_CHARGES>
51
1 0.97
10 0.41
11 0.14
12 -0.14
13 -0.14
14 -0.14
15 -0.15
16 -0.15
17 -0.29
18 0.28
19 -0.15
2 -0.68
20 -0.15
21 -0.15
22 -0.15
23 -0.15
24 -0.15
26 -0.15
27 -0.15
28 -0.15
29 -0.15
3 -0.55
30 -0.15
31 -0.3
32 -0.15
33 -0.15
4 -0.7
44 0.4
45 0.15
46 0.15
47 0.15
5 -0.81
50 0.15
51 0.15
52 0.15
53 0.15
54 0.15
55 0.15
59 0.15
6 0.27
60 0.15
61 0.15
62 0.15
63 0.15
64 0.15
65 0.15
66 0.15
67 0.15
7 0.28
8 0.14
9 0.41

> <PUBCHEM_EFFECTIVE_ROTOR_COUNT>
13

> <PUBCHEM_PHARMACOPHORE_FEATURES>
7
1 2 acceptor
1 2 donor
1 31 hydrophobe
1 5 cation
6 12 15 16 23 24 26 rings
6 13 19 21 27 29 32 rings
6 14 20 22 28 30 33 rings

> <PUBCHEM_HEAVY_ATOM_COUNT>
33

> <PUBCHEM_ATOM_DEF_STEREO_COUNT>
2

> <PUBCHEM_ATOM_UDEF_STEREO_COUNT>
1

> <PUBCHEM_BOND_DEF_STEREO_COUNT>
0

> <PUBCHEM_BOND_UDEF_STEREO_COUNT>
0

> <PUBCHEM_ISOTOPIC_ATOM_COUNT>
0

> <PUBCHEM_COMPONENT_COUNT>
1

> <PUBCHEM_CACTVS_TAUTO_COUNT>
2

> <PUBCHEM_CONFORMER_ID>
0608AC4700000001

> <PUBCHEM_MMFF94_ENERGY>
86.8878

> <PUBCHEM_FEATURE_SELFOVERLAP>
35.521

> <PUBCHEM_SHAPE_FINGERPRINT>
10258939 38 15692321907385942184
107951 10 17917720131505471676
11115154 58 17047370044642135959
11297750 10 16955061190134162859
11578080 2 17099748132567074684
11582403 64 17775293741713530549
11763715 3 16819427003410823786
12156800 1 17832742270702822903
12160290 23 17832957792631130906
12166972 35 12540990620164334569
12422481 6 17385724686028531701
12597179 24 17346056544123269141
12788726 201 17981323714018546234
133893 2 17834074634246172026
14840074 17 17168434877673907508
14863182 85 17971221246769692889
15775530 1 16953640663723106440
17980427 23 17749119923855851497
20600515 1 16891418609396928288
23419403 2 17608642821749213737
25222932 49 18202285840767333307
27425 322 18131069380665854732
3380486 77 16116570830874467278
469060 322 17169250723558933090
5080951 261 17828457474828513440
550186 7 17558564744307811909
563151 248 17059764530252505234
57527452 28 18046051916612945551
59444896 2 16809855642736929575
59755656 520 18411979191720631296
6669772 16 17845952752697199556

> <PUBCHEM_SHAPE_MULTIPOLES>
660.39
8.15
5.09
4.86
1.53
7.27
4.8
-11.85
-5.08
1.68
-2.22
-1.51
4.43
-1.62

> <PUBCHEM_SHAPE_SELFOVERLAP>
1364.805

> <PUBCHEM_SHAPE_VOLUME>
377.4

> <PUBCHEM_COORDINATE_TYPE>
2
5
10

$$$$
