101736162
  -OEChem-02172602503D

 44 46  0     0  0  0  0  0  0999 V2000
   -1.4108    0.0388    0.0603 O   0  0  0  0  0  0  0  0  0  0  0  0
    0.4422    1.3571   -0.0145 O   0  0  0  0  0  0  0  0  0  0  0  0
    0.6655   -0.9807    0.1784 N   0  0  0  0  0  0  0  0  0  0  0  0
    0.6411   -3.4486   -0.2438 C   0  0  0  0  0  0  0  0  0  0  0  0
   -0.0726   -2.2505    0.3680 C   0  0  0  0  0  0  0  0  0  0  0  0
    2.0613   -3.5540    0.2881 C   0  0  0  0  0  0  0  0  0  0  0  0
    2.0692   -1.0452    0.2112 C   0  0  0  0  0  0  0  0  0  0  0  0
    2.7320   -2.2162    0.2941 C   0  0  0  0  0  0  0  0  0  0  0  0
    2.9049    0.1683    0.1994 C   0  0  0  0  0  0  0  0  0  0  0  0
    3.3749    0.7133   -0.9954 C   0  0  0  0  0  0  0  0  0  0  0  0
   -0.0511    0.2345    0.0664 C   0  0  0  0  0  0  0  0  0  0  0  0
    3.2250    0.7725    1.4152 C   0  0  0  0  0  0  0  0  0  0  0  0
    4.1652    1.8626   -0.9744 C   0  0  0  0  0  0  0  0  0  0  0  0
    3.0520    0.0929   -2.3166 C   0  0  0  0  0  0  0  0  0  0  0  0
    4.0154    1.9218    1.4361 C   0  0  0  0  0  0  0  0  0  0  0  0
    4.4855    2.4668    0.2413 C   0  0  0  0  0  0  0  0  0  0  0  0
   -2.2225    1.2146   -0.0454 C   0  0  0  0  0  0  0  0  0  0  0  0
   -3.6686    0.8142   -0.0366 C   0  0  0  0  0  0  0  0  0  0  0  0
   -4.3220    0.5329   -1.2363 C   0  0  0  0  0  0  0  0  0  0  0  0
   -4.3594    0.7232    1.1717 C   0  0  0  0  0  0  0  0  0  0  0  0
   -5.6664    0.1608   -1.2280 C   0  0  0  0  0  0  0  0  0  0  0  0
   -5.7037    0.3510    1.1803 C   0  0  0  0  0  0  0  0  0  0  0  0
   -6.3572    0.0699   -0.0196 C   0  0  0  0  0  0  0  0  0  0  0  0
    0.6686   -3.3337   -1.3354 H   0  0  0  0  0  0  0  0  0  0  0  0
    0.0892   -4.3709   -0.0316 H   0  0  0  0  0  0  0  0  0  0  0  0
   -1.0723   -2.1866   -0.0728 H   0  0  0  0  0  0  0  0  0  0  0  0
   -0.2032   -2.3850    1.4491 H   0  0  0  0  0  0  0  0  0  0  0  0
    2.0612   -3.9561    1.3077 H   0  0  0  0  0  0  0  0  0  0  0  0
    2.6309   -4.2501   -0.3376 H   0  0  0  0  0  0  0  0  0  0  0  0
    3.8183   -2.2333    0.3583 H   0  0  0  0  0  0  0  0  0  0  0  0
    2.8660    0.3619    2.3560 H   0  0  0  0  0  0  0  0  0  0  0  0
    4.5406    2.3009   -1.8954 H   0  0  0  0  0  0  0  0  0  0  0  0
    3.4908   -0.9074   -2.3906 H   0  0  0  0  0  0  0  0  0  0  0  0
    1.9688    0.0277   -2.4622 H   0  0  0  0  0  0  0  0  0  0  0  0
    3.4497    0.6830   -3.1498 H   0  0  0  0  0  0  0  0  0  0  0  0
    4.2644    2.3925    2.3827 H   0  0  0  0  0  0  0  0  0  0  0  0
    5.1007    3.3617    0.2578 H   0  0  0  0  0  0  0  0  0  0  0  0
   -2.0111    1.8868    0.7955 H   0  0  0  0  0  0  0  0  0  0  0  0
   -1.9832    1.7469   -0.9743 H   0  0  0  0  0  0  0  0  0  0  0  0
   -3.7939    0.5982   -2.1839 H   0  0  0  0  0  0  0  0  0  0  0  0
   -3.8606    0.9377    2.1132 H   0  0  0  0  0  0  0  0  0  0  0  0
   -6.1750   -0.0587   -2.1621 H   0  0  0  0  0  0  0  0  0  0  0  0
   -6.2415    0.2796    2.1211 H   0  0  0  0  0  0  0  0  0  0  0  0
   -7.4038   -0.2201   -0.0129 H   0  0  0  0  0  0  0  0  0  0  0  0
  1 11  1  0  0  0  0
  1 17  1  0  0  0  0
  2 11  2  0  0  0  0
  3  5  1  0  0  0  0
  3  7  1  0  0  0  0
  3 11  1  0  0  0  0
  4  5  1  0  0  0  0
  4  6  1  0  0  0  0
  4 24  1  0  0  0  0
  4 25  1  0  0  0  0
  5 26  1  0  0  0  0
  5 27  1  0  0  0  0
  6  8  1  0  0  0  0
  6 28  1  0  0  0  0
  6 29  1  0  0  0  0
  7  8  2  0  0  0  0
  7  9  1  0  0  0  0
  8 30  1  0  0  0  0
  9 10  1  0  0  0  0
  9 12  2  0  0  0  0
 10 13  2  0  0  0  0
 10 14  1  0  0  0  0
 12 15  1  0  0  0  0
 12 31  1  0  0  0  0
 13 16  1  0  0  0  0
 13 32  1  0  0  0  0
 14 33  1  0  0  0  0
 14 34  1  0  0  0  0
 14 35  1  0  0  0  0
 15 16  2  0  0  0  0
 15 36  1  0  0  0  0
 16 37  1  0  0  0  0
 17 18  1  0  0  0  0
 17 38  1  0  0  0  0
 17 39  1  0  0  0  0
 18 19  2  0  0  0  0
 18 20  1  0  0  0  0
 19 21  1  0  0  0  0
 19 40  1  0  0  0  0
 20 22  2  0  0  0  0
 20 41  1  0  0  0  0
 21 23  2  0  0  0  0
 21 42  1  0  0  0  0
 22 23  1  0  0  0  0
 22 43  1  0  0  0  0
 23 44  1  0  0  0  0
M  END
> <PUBCHEM_COMPOUND_CID>
101736162

> <PUBCHEM_CONFORMER_RMSD>
0.8

> <PUBCHEM_CONFORMER_DIVERSEORDER>
1
16
9
63
5
51
33
46
62
18
19
57
29
52
47
7
71
6
64
50
65
12
74
68
35
59
40
22
26
24
53
69
37
4
30
17
25
2
58
38
14
34
61
32
55
44
21
15
31
28
8
67
39
20
3
42
36
66
11
45
49
41
13
43
72
48
70
10
27
23
60
73
56
54

> <PUBCHEM_MMFF94_PARTIAL_CHARGES>
32
1 -0.43
10 -0.14
11 0.78
12 -0.15
13 -0.15
14 0.14
15 -0.15
16 -0.15
17 0.42
18 -0.14
19 -0.15
2 -0.57
20 -0.15
21 -0.15
22 -0.15
23 -0.15
3 -0.47
30 0.15
31 0.15
32 0.15
36 0.15
37 0.15
40 0.15
41 0.15
42 0.15
43 0.15
44 0.15
5 0.3
6 0.14
7 0.08
8 -0.29
9 0.03

> <PUBCHEM_EFFECTIVE_ROTOR_COUNT>
5.8

> <PUBCHEM_PHARMACOPHORE_FEATURES>
4
1 2 acceptor
6 18 19 20 21 22 23 rings
6 3 4 5 6 7 8 rings
6 9 10 12 13 15 16 rings

> <PUBCHEM_HEAVY_ATOM_COUNT>
23

> <PUBCHEM_ATOM_DEF_STEREO_COUNT>
0

> <PUBCHEM_ATOM_UDEF_STEREO_COUNT>
0

> <PUBCHEM_BOND_DEF_STEREO_COUNT>
0

> <PUBCHEM_BOND_UDEF_STEREO_COUNT>
0

> <PUBCHEM_ISOTOPIC_ATOM_COUNT>
0

> <PUBCHEM_COMPONENT_COUNT>
1

> <PUBCHEM_CACTVS_TAUTO_COUNT>
9

> <PUBCHEM_CONFORMER_ID>
06105EE200000001

> <PUBCHEM_MMFF94_ENERGY>
62.6211

> <PUBCHEM_FEATURE_SELFOVERLAP>
20.298

> <PUBCHEM_SHAPE_FINGERPRINT>
10090160 65 18408878551359763985
10165383 225 18336835272996726236
10835480 77 18261946363750829061
12107183 9 17551802413317113785
12236239 1 17846500331717269473
12596602 18 17775287184115627425
12616971 3 18059288756673761783
12730499 353 18410019839976179307
13533116 47 18341050714635692283
13631057 29 18056466486762162535
13955234 65 18337953394148077474
14170010 4 18411413978598746778
14528608 73 18272651259970663333
146900 427 18272092690894193593
14790565 3 18192999441924848549
15537594 2 18202562891642938119
15961568 22 16515697640486010941
17844677 252 18339645517248102653
1979834 28 18114185233001541637
20645477 70 18260828142543605547
22149856 69 18262818315194361609
23559900 14 17313674732689736363
239999 70 17989209230903029260
3060560 45 18261402156643946748
312423 11 18127980702447614681
350125 39 18408604751943408850
427121 178 18412824711877524616
4340502 62 18412260661874320876
5104073 3 18263083219844710313
57527306 92 16298682667737582092
633830 44 18060145323091350301
6442390 28 18339647853325170402
6913067 236 18040986363369211461
70251023 43 17843700875706257446
7808743 9 18048038755683627148

> <PUBCHEM_SHAPE_MULTIPOLES>
456.61
12.89
3.09
1.4
20.9
3.37
-0.4
-7.02
-0.18
-4.51
0.39
-0.46
-0.46
0.04

> <PUBCHEM_SHAPE_SELFOVERLAP>
979.288

> <PUBCHEM_SHAPE_VOLUME>
250.5

> <PUBCHEM_COORDINATE_TYPE>
2
5
10

$$$$
