101372572
  -OEChem-02172602503D

 31 34  0     1  0  0  0  0  0999 V2000
    1.9913   -2.4976    1.1179 O   0  5  0  0  0  0  0  0  0  0  0  0
    0.9148   -1.0964    2.4341 O   0  0  0  0  0  0  0  0  0  0  0  0
   -2.2658    2.6617    0.8169 O   0  0  0  0  0  0  0  0  0  0  0  0
   -3.3635   -0.9795   -1.6222 O   0  5  0  0  0  0  0  0  0  0  0  0
   -2.9913   -2.4513   -0.0264 O   0  0  0  0  0  0  0  0  0  0  0  0
    1.2958   -1.5025    1.3337 N   0  3  0  0  0  0  0  0  0  0  0  0
   -0.8787    2.6077    0.9940 N   0  0  0  0  0  0  0  0  0  0  0  0
   -2.7689    1.4513    0.3268 N   0  0  0  0  0  0  0  0  0  0  0  0
   -2.7273   -1.4184   -0.6553 N   0  3  0  0  0  0  0  0  0  0  0  0
    0.8902   -0.6921    0.1443 C   0  0  1  0  0  0  0  0  0  0  0  0
    0.8443    0.8323    0.6080 C   0  0  1  0  0  0  0  0  0  0  0  0
    1.9965   -0.8615   -0.9456 C   0  0  1  0  0  0  0  0  0  0  0  0
    1.8136    1.6549   -0.3012 C   0  0  2  0  0  0  0  0  0  0  0  0
    1.5886   -0.0303   -2.1880 C   0  0  0  0  0  0  0  0  0  0  0  0
    1.4419    1.4577   -1.7927 C   0  0  0  0  0  0  0  0  0  0  0  0
    3.2898   -0.2383   -0.4430 C   0  0  0  0  0  0  0  0  0  0  0  0
    3.1948    1.0595   -0.1135 C   0  0  0  0  0  0  0  0  0  0  0  0
   -0.5488    1.3776    0.6024 C   0  0  0  0  0  0  0  0  0  0  0  0
   -0.4292   -1.3369   -0.2679 C   0  0  0  0  0  0  0  0  0  0  0  0
   -1.6948    0.6717    0.2068 C   0  0  0  0  0  0  0  0  0  0  0  0
   -1.5932   -0.6694   -0.2291 C   0  0  0  0  0  0  0  0  0  0  0  0
    1.2214    0.9728    1.6311 H   0  0  0  0  0  0  0  0  0  0  0  0
    2.1595   -1.9026   -1.2480 H   0  0  0  0  0  0  0  0  0  0  0  0
    1.8114    2.7187   -0.0410 H   0  0  0  0  0  0  0  0  0  0  0  0
    0.6532   -0.3971   -2.6251 H   0  0  0  0  0  0  0  0  0  0  0  0
    2.3506   -0.1249   -2.9727 H   0  0  0  0  0  0  0  0  0  0  0  0
    2.0980    2.0669   -2.4277 H   0  0  0  0  0  0  0  0  0  0  0  0
    0.4196    1.7989   -1.9912 H   0  0  0  0  0  0  0  0  0  0  0  0
    4.2083   -0.8043   -0.3633 H   0  0  0  0  0  0  0  0  0  0  0  0
    4.0278    1.6393    0.2602 H   0  0  0  0  0  0  0  0  0  0  0  0
   -0.3836   -2.3671   -0.6196 H   0  0  0  0  0  0  0  0  0  0  0  0
  1  6  1  0  0  0  0
  2  6  2  0  0  0  0
  3  7  1  0  0  0  0
  3  8  1  0  0  0  0
  4  9  1  0  0  0  0
  5  9  2  0  0  0  0
  6 10  1  0  0  0  0
  7 18  2  0  0  0  0
  8 20  2  0  0  0  0
  9 21  1  0  0  0  0
 10 11  1  0  0  0  0
 10 12  1  0  0  0  0
 10 19  1  0  0  0  0
 11 13  1  0  0  0  0
 11 18  1  0  0  0  0
 11 22  1  0  0  0  0
 12 14  1  0  0  0  0
 12 16  1  0  0  0  0
 12 23  1  0  0  0  0
 13 15  1  0  0  0  0
 13 17  1  0  0  0  0
 13 24  1  0  0  0  0
 14 15  1  0  0  0  0
 14 25  1  0  0  0  0
 14 26  1  0  0  0  0
 15 27  1  0  0  0  0
 15 28  1  0  0  0  0
 16 17  2  0  0  0  0
 16 29  1  0  0  0  0
 17 30  1  0  0  0  0
 18 20  1  0  0  0  0
 19 21  2  0  0  0  0
 19 31  1  0  0  0  0
 20 21  1  0  0  0  0
M  CHG  4   1  -1   4  -1   6   1   9   1
M  END
> <PUBCHEM_COMPOUND_CID>
101372572

> <PUBCHEM_CONFORMER_RMSD>
0.6

> <PUBCHEM_CONFORMER_DIVERSEORDER>
1
2

> <PUBCHEM_MMFF94_PARTIAL_CHARGES>
22
1 -0.52
10 0.38
11 0.18
12 0.14
13 0.14
16 -0.29
17 -0.29
18 0.11
19 -0.29
2 -0.52
20 0.24
21 0.25
29 0.15
3 0.24
30 0.15
31 0.15
4 -0.52
5 -0.52
6 0.8
7 -0.41
8 -0.41
9 0.84

> <PUBCHEM_EFFECTIVE_ROTOR_COUNT>
2.4

> <PUBCHEM_PHARMACOPHORE_FEATURES>
11
1 1 acceptor
1 1 anion
1 2 acceptor
1 4 acceptor
1 4 anion
1 5 acceptor
1 7 acceptor
1 8 acceptor
5 3 7 8 18 20 rings
6 10 11 18 19 20 21 rings
8 10 11 12 13 14 15 16 17 rings

> <PUBCHEM_HEAVY_ATOM_COUNT>
21

> <PUBCHEM_ATOM_DEF_STEREO_COUNT>
4

> <PUBCHEM_ATOM_UDEF_STEREO_COUNT>
0

> <PUBCHEM_BOND_DEF_STEREO_COUNT>
0

> <PUBCHEM_BOND_UDEF_STEREO_COUNT>
0

> <PUBCHEM_ISOTOPIC_ATOM_COUNT>
0

> <PUBCHEM_COMPONENT_COUNT>
1

> <PUBCHEM_CACTVS_TAUTO_COUNT>
2

> <PUBCHEM_CONFORMER_ID>
060AD29C00000001

> <PUBCHEM_MMFF94_ENERGY>
66.3628

> <PUBCHEM_FEATURE_SELFOVERLAP>
56.154

> <PUBCHEM_SHAPE_FINGERPRINT>
10863032 1 18059860511225581668
10948715 1 18270689666812842036
11578080 2 17755261679586002244
12202030 40 16343713101110740149
12423570 1 17842313373678249370
12491281 212 18339378378692618096
12654903 92 17767422187683038526
13172582 1 17760365491906798240
13538477 17 18338233752469720265
13898156 1 18337673001354912259
14787075 74 17686897632620039358
14817 1 17699826450559079884
15775835 57 18190476973282575972
16752209 62 18199745848252772217
16945 1 18198351851754281916
17492 54 17481702378803515133
20645476 183 18117297864715523485
22112679 90 18191298269866352242
22802520 49 17630912441705792797
2334 1 18272092754991784869
23402539 116 18058727047533093470
23419403 2 16533053418661337433
23557571 272 17846510235167841284
23558518 356 18265628734648652152
23559900 14 17772762568111474798
2748010 2 18130502041434503333
298252 57 17692285965403371124
3060560 45 17691983561178089133
353137 74 18336828709589930357
4340502 62 17458927963272864425
5845 1 16629378407303929953
6992083 37 17903350407815071418
7832392 63 18267593411698084316
81228 2 18201734954675783817
9981440 41 18049732016607043232

> <PUBCHEM_SHAPE_MULTIPOLES>
382.9
4.6
2.61
1.65
1.46
0.41
0.08
-0.56
1.22
1.17
-0.81
-0.48
-0.36
-1.19

> <PUBCHEM_SHAPE_SELFOVERLAP>
861.703

> <PUBCHEM_SHAPE_VOLUME>
199

> <PUBCHEM_COORDINATE_TYPE>
2
5
10

$$$$
