10878508
  -OEChem-02172602463D

 31 33  0     1  0  0  0  0  0999 V2000
   -3.6238    0.7552    0.3349 N   0  0  2  0  0  0  0  0  0  0  0  0
    0.6698    0.9097   -0.0613 N   0  0  0  0  0  0  0  0  0  0  0  0
    0.9252   -1.2953    0.0520 N   0  0  0  0  0  0  0  0  0  0  0  0
   -2.2252    0.9366   -0.0911 C   0  0  0  0  0  0  0  0  0  0  0  0
   -4.2234   -0.3858   -0.3630 C   0  0  0  0  0  0  0  0  0  0  0  0
   -1.3789   -0.3282   -0.0162 C   0  0  0  0  0  0  0  0  0  0  0  0
   -3.4901   -1.6757    0.0161 C   0  0  0  0  0  0  0  0  0  0  0  0
   -1.9964   -1.5269    0.0396 C   0  0  0  0  0  0  0  0  0  0  0  0
    0.0623   -0.3108   -0.0052 C   0  0  0  0  0  0  0  0  0  0  0  0
   -4.3954    1.9748    0.1007 C   0  0  0  0  0  0  0  0  0  0  0  0
    2.0246    0.6989   -0.0391 C   0  0  0  0  0  0  0  0  0  0  0  0
    2.1583   -0.6851    0.0318 C   0  0  0  0  0  0  0  0  0  0  0  0
    3.1115    1.5731   -0.0739 C   0  0  0  0  0  0  0  0  0  0  0  0
    3.4453   -1.2476    0.0714 C   0  0  0  0  0  0  0  0  0  0  0  0
    4.3850    0.9961   -0.0340 C   0  0  0  0  0  0  0  0  0  0  0  0
    4.5512   -0.3889    0.0374 C   0  0  0  0  0  0  0  0  0  0  0  0
   -1.7930    1.6929    0.5755 H   0  0  0  0  0  0  0  0  0  0  0  0
   -2.1737    1.3256   -1.1173 H   0  0  0  0  0  0  0  0  0  0  0  0
   -4.1887   -0.2406   -1.4514 H   0  0  0  0  0  0  0  0  0  0  0  0
   -5.2789   -0.4967   -0.0859 H   0  0  0  0  0  0  0  0  0  0  0  0
   -3.7636   -2.4632   -0.6955 H   0  0  0  0  0  0  0  0  0  0  0  0
   -3.8153   -2.0099    1.0091 H   0  0  0  0  0  0  0  0  0  0  0  0
   -1.4288   -2.4517    0.1091 H   0  0  0  0  0  0  0  0  0  0  0  0
   -4.4396    2.2404   -0.9617 H   0  0  0  0  0  0  0  0  0  0  0  0
   -3.9600    2.8172    0.6495 H   0  0  0  0  0  0  0  0  0  0  0  0
   -5.4205    1.8567    0.4688 H   0  0  0  0  0  0  0  0  0  0  0  0
    0.2280    1.8172   -0.1229 H   0  0  0  0  0  0  0  0  0  0  0  0
    2.9799    2.6478   -0.1293 H   0  0  0  0  0  0  0  0  0  0  0  0
    3.5850   -2.3224    0.1268 H   0  0  0  0  0  0  0  0  0  0  0  0
    5.2617    1.6386   -0.0590 H   0  0  0  0  0  0  0  0  0  0  0  0
    5.5538   -0.8079    0.0671 H   0  0  0  0  0  0  0  0  0  0  0  0
  1  4  1  0  0  0  0
  1  5  1  0  0  0  0
  1 10  1  0  0  0  0
  2  9  1  0  0  0  0
  2 11  1  0  0  0  0
  2 27  1  0  0  0  0
  3  9  2  0  0  0  0
  3 12  1  0  0  0  0
  4  6  1  0  0  0  0
  4 17  1  0  0  0  0
  4 18  1  0  0  0  0
  5  7  1  0  0  0  0
  5 19  1  0  0  0  0
  5 20  1  0  0  0  0
  6  8  2  0  0  0  0
  6  9  1  0  0  0  0
  7  8  1  0  0  0  0
  7 21  1  0  0  0  0
  7 22  1  0  0  0  0
  8 23  1  0  0  0  0
 10 24  1  0  0  0  0
 10 25  1  0  0  0  0
 10 26  1  0  0  0  0
 11 12  1  0  0  0  0
 11 13  2  0  0  0  0
 12 14  2  0  0  0  0
 13 15  1  0  0  0  0
 13 28  1  0  0  0  0
 14 16  1  0  0  0  0
 14 29  1  0  0  0  0
 15 16  2  0  0  0  0
 15 30  1  0  0  0  0
 16 31  1  0  0  0  0
M  END
> <PUBCHEM_COMPOUND_CID>
10878508

> <PUBCHEM_CONFORMER_RMSD>
0.6

> <PUBCHEM_CONFORMER_DIVERSEORDER>
1
2

> <PUBCHEM_MMFF94_PARTIAL_CHARGES>
22
1 -0.81
10 0.27
11 -0.15
12 0.23
13 -0.15
14 -0.15
15 -0.15
16 -0.15
2 0.03
23 0.15
27 0.27
28 0.15
29 0.15
3 -0.57
30 0.15
31 0.15
4 0.41
5 0.27
6 -0.09
7 0.14
8 -0.29
9 0.14

> <PUBCHEM_EFFECTIVE_ROTOR_COUNT>
1.8

> <PUBCHEM_PHARMACOPHORE_FEATURES>
6
1 1 cation
1 2 donor
3 2 3 9 cation
5 2 3 9 11 12 rings
6 1 4 5 6 7 8 rings
6 11 12 13 14 15 16 rings

> <PUBCHEM_HEAVY_ATOM_COUNT>
16

> <PUBCHEM_ATOM_DEF_STEREO_COUNT>
0

> <PUBCHEM_ATOM_UDEF_STEREO_COUNT>
0

> <PUBCHEM_BOND_DEF_STEREO_COUNT>
0

> <PUBCHEM_BOND_UDEF_STEREO_COUNT>
0

> <PUBCHEM_ISOTOPIC_ATOM_COUNT>
0

> <PUBCHEM_COMPONENT_COUNT>
1

> <PUBCHEM_CACTVS_TAUTO_COUNT>
1

> <PUBCHEM_CONFORMER_ID>
00A5FE2C00000001

> <PUBCHEM_MMFF94_ENERGY>
27.1326

> <PUBCHEM_FEATURE_SELFOVERLAP>
30.554

> <PUBCHEM_SHAPE_FINGERPRINT>
10014705 185 18261107465984326669
10608611 8 18411416232649481433
10616163 171 18340488966593294407
11471102 20 18410008845344951182
12107183 9 17905322927422428771
12500047 106 18342734126534628771
13167823 11 18410571803392896034
13675066 3 18131347531606007186
14325111 11 18410575114733131238
14415576 193 18411141350668843604
15196674 1 18410575088963327460
15239154 128 18410014346639264884
15375358 24 18343584027337196662
15442244 35 18266458702860725450
15536298 74 18413108372786782630
17834072 33 18341610455599742463
18186145 218 18040148509396098654
19050596 39 18407758136062659962
200 152 18059851792405105911
20300324 65 18201716288990287559
20645477 56 18336550426364907237
20645477 70 18342739589933892470
21065198 57 18410575097701130570
21267235 1 18410301327895969731
21421861 104 17678731229401565210
21452121 103 18200864189159677224
221490 88 18264496255014994194
2306618 200 18131360717524780691
23402539 116 18272644628340646573
23402655 69 18412544318931853364
23557571 272 18272380796836237389
23559900 14 18200030634412040686
335352 9 18266459810972896054
3545911 37 18411984658628046449
4028521 119 18187072945739253205
42 15 18334012791802722274
4214541 1 18410855456070675277
474 4 17532095071542944860
4990 188 18130517383331679902
5104073 3 18409448089571231778
543358 83 18338238163585905530
573450 72 18335972121238777803
633830 44 17748829630936060026
6430166 295 18410572855601614441
69090 78 18411133641049884615
77779 3 18410576201460168382
9709674 26 18411706503624743094
9981440 41 17252870962348531152

> <PUBCHEM_SHAPE_MULTIPOLES>
314.33
9.86
1.83
0.62
0.28
0.18
0.01
1.8
0.02
0.98
-0.04
0.05
0
-0.19

> <PUBCHEM_SHAPE_SELFOVERLAP>
684.332

> <PUBCHEM_SHAPE_VOLUME>
171.8

> <PUBCHEM_COORDINATE_TYPE>
2
5
10

$$$$
