143717
  -OEChem-02172602333D

 28 28  0     1  0  0  0  0  0999 V2000
   -2.3851    0.0070    1.3590 O   0  0  0  0  0  0  0  0  0  0  0  0
    2.3266   -1.8662   -0.0632 O   0  0  0  0  0  0  0  0  0  0  0  0
   -0.6957    0.0858   -0.3449 C   0  0  2  0  0  0  0  0  0  0  0  0
   -2.1867   -0.0659   -0.0538 C   0  0  0  0  0  0  0  0  0  0  0  0
    0.1050   -1.0512    0.2849 C   0  0  0  0  0  0  0  0  0  0  0  0
   -0.1770    1.4393    0.1499 C   0  0  0  0  0  0  0  0  0  0  0  0
   -2.7048   -1.4165   -0.5473 C   0  0  0  0  0  0  0  0  0  0  0  0
   -2.9780    1.0765   -0.6880 C   0  0  0  0  0  0  0  0  0  0  0  0
    1.5891   -0.8855    0.0304 C   0  0  0  0  0  0  0  0  0  0  0  0
    1.3156    1.5411    0.0572 C   0  0  0  0  0  0  0  0  0  0  0  0
    2.1536    0.4969   -0.0300 C   0  0  0  0  0  0  0  0  0  0  0  0
    3.6374    0.6387   -0.1542 C   0  0  0  0  0  0  0  0  0  0  0  0
   -0.5390    0.0446   -1.4336 H   0  0  0  0  0  0  0  0  0  0  0  0
   -0.1752   -2.0128   -0.1577 H   0  0  0  0  0  0  0  0  0  0  0  0
   -0.0416   -1.1114    1.3692 H   0  0  0  0  0  0  0  0  0  0  0  0
   -0.4687    1.6399    1.1872 H   0  0  0  0  0  0  0  0  0  0  0  0
   -0.5917    2.2441   -0.4678 H   0  0  0  0  0  0  0  0  0  0  0  0
   -2.3300   -2.2490    0.0569 H   0  0  0  0  0  0  0  0  0  0  0  0
   -3.7965   -1.4664   -0.4527 H   0  0  0  0  0  0  0  0  0  0  0  0
   -2.4527   -1.5899   -1.5986 H   0  0  0  0  0  0  0  0  0  0  0  0
   -2.7703    1.1693   -1.7590 H   0  0  0  0  0  0  0  0  0  0  0  0
   -2.7843    2.0372   -0.1995 H   0  0  0  0  0  0  0  0  0  0  0  0
   -4.0557    0.9094   -0.5701 H   0  0  0  0  0  0  0  0  0  0  0  0
    1.7243    2.5490    0.0537 H   0  0  0  0  0  0  0  0  0  0  0  0
   -3.3355   -0.1005    1.5349 H   0  0  0  0  0  0  0  0  0  0  0  0
    3.9485    1.6886   -0.1679 H   0  0  0  0  0  0  0  0  0  0  0  0
    3.9889    0.1761   -1.0822 H   0  0  0  0  0  0  0  0  0  0  0  0
    4.1406    0.1543    0.6890 H   0  0  0  0  0  0  0  0  0  0  0  0
  1  4  1  0  0  0  0
  1 25  1  0  0  0  0
  2  9  2  0  0  0  0
  3  4  1  0  0  0  0
  3  5  1  0  0  0  0
  3  6  1  0  0  0  0
  3 13  1  0  0  0  0
  4  7  1  0  0  0  0
  4  8  1  0  0  0  0
  5  9  1  0  0  0  0
  5 14  1  0  0  0  0
  5 15  1  0  0  0  0
  6 10  1  0  0  0  0
  6 16  1  0  0  0  0
  6 17  1  0  0  0  0
  7 18  1  0  0  0  0
  7 19  1  0  0  0  0
  7 20  1  0  0  0  0
  8 21  1  0  0  0  0
  8 22  1  0  0  0  0
  8 23  1  0  0  0  0
  9 11  1  0  0  0  0
 10 11  2  0  0  0  0
 10 24  1  0  0  0  0
 11 12  1  0  0  0  0
 12 26  1  0  0  0  0
 12 27  1  0  0  0  0
 12 28  1  0  0  0  0
M  END
> <PUBCHEM_COMPOUND_CID>
143717

> <PUBCHEM_CONFORMER_RMSD>
0.4

> <PUBCHEM_CONFORMER_DIVERSEORDER>
2
12
7
11
6
5
1
9
8
10
4
3

> <PUBCHEM_MMFF94_PARTIAL_CHARGES>
11
1 -0.68
10 -0.29
11 -0.12
12 0.14
2 -0.57
24 0.15
25 0.4
4 0.28
5 0.06
6 0.14
9 0.49

> <PUBCHEM_EFFECTIVE_ROTOR_COUNT>
1.6

> <PUBCHEM_PHARMACOPHORE_FEATURES>
5
1 1 acceptor
1 1 donor
1 2 acceptor
3 4 7 8 hydrophobe
6 3 5 6 9 10 11 rings

> <PUBCHEM_HEAVY_ATOM_COUNT>
12

> <PUBCHEM_ATOM_DEF_STEREO_COUNT>
0

> <PUBCHEM_ATOM_UDEF_STEREO_COUNT>
1

> <PUBCHEM_BOND_DEF_STEREO_COUNT>
0

> <PUBCHEM_BOND_UDEF_STEREO_COUNT>
0

> <PUBCHEM_ISOTOPIC_ATOM_COUNT>
0

> <PUBCHEM_COMPONENT_COUNT>
1

> <PUBCHEM_CACTVS_TAUTO_COUNT>
5

> <PUBCHEM_CONFORMER_ID>
0002316500000002

> <PUBCHEM_MMFF94_ENERGY>
23.2411

> <PUBCHEM_FEATURE_SELFOVERLAP>
25.371

> <PUBCHEM_SHAPE_FINGERPRINT>
11132069 177 18412537726341722192
12897270 3 18411976983484545884
12932764 1 18413112774827606701
13571099 22 18341326699910923637
14325111 11 18409164441510042428
14993402 34 17917705807794664789
15219456 202 18260551086892894701
15775835 57 18411702097177512933
16945 1 18336831986708070884
17844478 74 17968109632957450665
17990270 104 18408037416221443970
18186145 218 18201727305381376832
18619055 16 18339634538715231479
193761 8 13799451544186029300
200 152 18059849632084015991
20201158 50 18334855026030455994
20645477 70 18339072684195170951
21501502 16 18335411348975933743
23235685 24 18335697282392655988
23402655 69 18267568153565434653
23552423 10 18334294257899328639
2748010 2 18265613178492844780
3248919 1 17312822697029680149
3312278 4 18413108368075285329
369184 2 18411418401876731407
5084963 1 18198903802164647633
528886 8 18411693292288840728
63268167 104 18413108346595031369
8030462 33 17346594153853799451

> <PUBCHEM_SHAPE_MULTIPOLES>
235.22
5.12
1.7
0.8
0.54
0.22
-0.13
-0.06
0.53
0.24
0.1
-0.44
-0.02
0.01

> <PUBCHEM_SHAPE_SELFOVERLAP>
473.548

> <PUBCHEM_SHAPE_VOLUME>
139.1

> <PUBCHEM_COORDINATE_TYPE>
2
5
10

$$$$
