549742
  -OEChem-02172602543D

 28 29  0     1  0  0  0  0  0999 V2000
    0.3913    1.2812   -0.9977 O   0  0  0  0  0  0  0  0  0  0  0  0
   -2.5785    1.5497    0.3211 O   0  0  0  0  0  0  0  0  0  0  0  0
    0.8165    0.1777   -0.1908 C   0  0  1  0  0  0  0  0  0  0  0  0
   -0.2739    1.1047    0.2656 C   0  0  2  0  0  0  0  0  0  0  0  0
    0.4776   -1.1799   -0.7118 C   0  0  0  0  0  0  0  0  0  0  0  0
    2.1964    0.3711    0.3504 C   0  0  0  0  0  0  0  0  0  0  0  0
   -0.9712   -1.2879   -1.1881 C   0  0  0  0  0  0  0  0  0  0  0  0
   -1.9856   -0.7369   -0.1775 C   0  0  2  0  0  0  0  0  0  0  0  0
   -1.6955    0.7209    0.1313 C   0  0  0  0  0  0  0  0  0  0  0  0
    2.3877   -0.3319    1.7094 C   0  0  0  0  0  0  0  0  0  0  0  0
    3.2738   -0.1319   -0.6312 C   0  0  0  0  0  0  0  0  0  0  0  0
   -2.0386   -1.5368    1.1193 C   0  0  0  0  0  0  0  0  0  0  0  0
   -0.0463    1.8143    1.0526 H   0  0  0  0  0  0  0  0  0  0  0  0
    0.6510   -1.9333    0.0643 H   0  0  0  0  0  0  0  0  0  0  0  0
    1.1238   -1.4417   -1.5572 H   0  0  0  0  0  0  0  0  0  0  0  0
    2.3790    1.4425    0.5112 H   0  0  0  0  0  0  0  0  0  0  0  0
   -1.0752   -0.7294   -2.1281 H   0  0  0  0  0  0  0  0  0  0  0  0
   -1.2014   -2.3343   -1.4210 H   0  0  0  0  0  0  0  0  0  0  0  0
   -2.9755   -0.7749   -0.6499 H   0  0  0  0  0  0  0  0  0  0  0  0
    1.6339    0.0068    2.4280 H   0  0  0  0  0  0  0  0  0  0  0  0
    3.3765   -0.1075    2.1231 H   0  0  0  0  0  0  0  0  0  0  0  0
    2.2983   -1.4193    1.6199 H   0  0  0  0  0  0  0  0  0  0  0  0
    3.1317    0.3075   -1.6243 H   0  0  0  0  0  0  0  0  0  0  0  0
    4.2711    0.1512   -0.2772 H   0  0  0  0  0  0  0  0  0  0  0  0
    3.2592   -1.2219   -0.7340 H   0  0  0  0  0  0  0  0  0  0  0  0
   -2.2427   -2.5933    0.9180 H   0  0  0  0  0  0  0  0  0  0  0  0
   -1.1025   -1.4689    1.6835 H   0  0  0  0  0  0  0  0  0  0  0  0
   -2.8334   -1.1575    1.7712 H   0  0  0  0  0  0  0  0  0  0  0  0
  1  3  1  0  0  0  0
  1  4  1  0  0  0  0
  2  9  2  0  0  0  0
  3  4  1  0  0  0  0
  3  5  1  0  0  0  0
  3  6  1  0  0  0  0
  4  9  1  0  0  0  0
  4 13  1  0  0  0  0
  5  7  1  0  0  0  0
  5 14  1  0  0  0  0
  5 15  1  0  0  0  0
  6 10  1  0  0  0  0
  6 11  1  0  0  0  0
  6 16  1  0  0  0  0
  7  8  1  0  0  0  0
  7 17  1  0  0  0  0
  7 18  1  0  0  0  0
  8  9  1  0  0  0  0
  8 12  1  0  0  0  0
  8 19  1  0  0  0  0
 10 20  1  0  0  0  0
 10 21  1  0  0  0  0
 10 22  1  0  0  0  0
 11 23  1  0  0  0  0
 11 24  1  0  0  0  0
 11 25  1  0  0  0  0
 12 26  1  0  0  0  0
 12 27  1  0  0  0  0
 12 28  1  0  0  0  0
M  END
> <PUBCHEM_COMPOUND_CID>
549742

> <PUBCHEM_CONFORMER_RMSD>
0.4

> <PUBCHEM_CONFORMER_DIVERSEORDER>
4
18
6
16
2
17
1
15
13
14
11
7
3
12
5
8
9
10

> <PUBCHEM_MMFF94_PARTIAL_CHARGES>
9
1 -0.3
13 0.1
2 -0.57
3 -0.04
4 0.05
5 0.09
6 0.09
8 0.06
9 0.51

> <PUBCHEM_EFFECTIVE_ROTOR_COUNT>
1.8

> <PUBCHEM_PHARMACOPHORE_FEATURES>
4
1 1 acceptor
1 2 acceptor
3 6 10 11 hydrophobe
7 1 3 4 5 7 8 9 rings

> <PUBCHEM_HEAVY_ATOM_COUNT>
12

> <PUBCHEM_ATOM_DEF_STEREO_COUNT>
0

> <PUBCHEM_ATOM_UDEF_STEREO_COUNT>
3

> <PUBCHEM_BOND_DEF_STEREO_COUNT>
0

> <PUBCHEM_BOND_UDEF_STEREO_COUNT>
0

> <PUBCHEM_ISOTOPIC_ATOM_COUNT>
0

> <PUBCHEM_COMPONENT_COUNT>
1

> <PUBCHEM_CACTVS_TAUTO_COUNT>
3

> <PUBCHEM_CONFORMER_ID>
0008636E00000004

> <PUBCHEM_MMFF94_ENERGY>
16.9233

> <PUBCHEM_FEATURE_SELFOVERLAP>
20.297

> <PUBCHEM_SHAPE_FINGERPRINT>
10857977 72 18342454880482284610
12423570 1 16748405067431614549
12932764 1 17022901242225161412
13024252 1 14273729625390073133
15076042 46 18339084890270218595
16945 1 18271516572180769167
19422 9 18114471123489306358
20511035 2 18127988411771674799
20645464 45 17417795262994108762
20653085 51 15697993003298712521
20653091 64 17823984639265529512
20715346 28 18060418040640034034
20871998 184 18271814552848667279
21040471 1 18201159849606023749
23235685 24 18269839726791196149
23419403 2 14902499841444286383
23552423 10 17823421684874755212
241688 4 15822995058753108099
2748010 2 18200887157964092711
29004967 10 14634871933479077644
369184 2 17458334226239230728
5084963 1 17203045295754588814

> <PUBCHEM_SHAPE_MULTIPOLES>
235.22
4.01
1.55
1.26
1.75
0.07
0.35
-0.1
0.73
-1.01
-0.08
0.38
-0.33
0.05

> <PUBCHEM_SHAPE_SELFOVERLAP>
480.38

> <PUBCHEM_SHAPE_VOLUME>
137.8

> <PUBCHEM_COORDINATE_TYPE>
2
5
10

$$$$
