177131
  -OEChem-02172602593D

 43 44  0     1  0  0  0  0  0999 V2000
    0.9591    0.4744    0.5676 C   0  0  1  0  0  0  0  0  0  0  0  0
    0.8080   -0.8325   -0.2850 C   0  0  1  0  0  0  0  0  0  0  0  0
    2.3644    0.6274   -0.0771 C   0  0  0  0  0  0  0  0  0  0  0  0
    2.3636   -0.8910   -0.3025 C   0  0  0  0  0  0  0  0  0  0  0  0
    0.1532   -2.0740    0.3252 C   0  0  1  0  0  0  0  0  0  0  0  0
    0.0534    1.6714    0.2815 C   0  0  0  0  0  0  0  0  0  0  0  0
    3.4264    1.0915    0.8956 C   0  0  0  0  0  0  0  0  0  0  0  0
    2.4791    1.3924   -1.3820 C   0  0  0  0  0  0  0  0  0  0  0  0
   -1.2138   -1.8004    0.9720 C   0  0  0  0  0  0  0  0  0  0  0  0
   -1.2961    1.5777    0.9994 C   0  0  0  0  0  0  0  0  0  0  0  0
   -2.5117    1.1708    0.1403 C   0  0  2  0  0  0  0  0  0  0  0  0
    0.0880   -3.1856   -0.7236 C   0  0  0  0  0  0  0  0  0  0  0  0
   -2.3977   -1.4381    0.0750 C   0  0  0  0  0  0  0  0  0  0  0  0
   -2.3743   -0.1159   -0.6948 C   0  0  0  0  0  0  0  0  0  0  0  0
   -2.9016    2.3316   -0.7917 C   0  0  0  0  0  0  0  0  0  0  0  0
    1.0178    0.2674    1.6467 H   0  0  0  0  0  0  0  0  0  0  0  0
    0.4257   -0.6351   -1.2945 H   0  0  0  0  0  0  0  0  0  0  0  0
    2.8043   -1.4699    0.5193 H   0  0  0  0  0  0  0  0  0  0  0  0
    2.8046   -1.2494   -1.2382 H   0  0  0  0  0  0  0  0  0  0  0  0
    0.7932   -2.4382    1.1409 H   0  0  0  0  0  0  0  0  0  0  0  0
   -0.0887    1.8250   -0.7921 H   0  0  0  0  0  0  0  0  0  0  0  0
    0.5584    2.5708    0.6582 H   0  0  0  0  0  0  0  0  0  0  0  0
    3.2919    2.1484    1.1509 H   0  0  0  0  0  0  0  0  0  0  0  0
    3.3999    0.5240    1.8328 H   0  0  0  0  0  0  0  0  0  0  0  0
    4.4311    0.9741    0.4740 H   0  0  0  0  0  0  0  0  0  0  0  0
    3.4679    1.2494   -1.8336 H   0  0  0  0  0  0  0  0  0  0  0  0
    1.7419    1.0746   -2.1268 H   0  0  0  0  0  0  0  0  0  0  0  0
    2.3476    2.4691   -1.2260 H   0  0  0  0  0  0  0  0  0  0  0  0
   -1.1043   -1.0676    1.7721 H   0  0  0  0  0  0  0  0  0  0  0  0
   -1.5020   -2.7241    1.4951 H   0  0  0  0  0  0  0  0  0  0  0  0
   -1.2263    0.9411    1.8845 H   0  0  0  0  0  0  0  0  0  0  0  0
   -1.5153    2.5743    1.4091 H   0  0  0  0  0  0  0  0  0  0  0  0
   -3.3562    1.0341    0.8295 H   0  0  0  0  0  0  0  0  0  0  0  0
    1.0938   -3.4554   -1.0636 H   0  0  0  0  0  0  0  0  0  0  0  0
   -0.3788   -4.0862   -0.3119 H   0  0  0  0  0  0  0  0  0  0  0  0
   -0.4796   -2.8763   -1.6074 H   0  0  0  0  0  0  0  0  0  0  0  0
   -3.3010   -1.4460    0.6995 H   0  0  0  0  0  0  0  0  0  0  0  0
   -2.5457   -2.2479   -0.6502 H   0  0  0  0  0  0  0  0  0  0  0  0
   -1.5207   -0.0564   -1.3698 H   0  0  0  0  0  0  0  0  0  0  0  0
   -3.2442   -0.1583   -1.3667 H   0  0  0  0  0  0  0  0  0  0  0  0
   -3.0412    3.2595   -0.2267 H   0  0  0  0  0  0  0  0  0  0  0  0
   -2.1416    2.5100   -1.5588 H   0  0  0  0  0  0  0  0  0  0  0  0
   -3.8468    2.1167   -1.3023 H   0  0  0  0  0  0  0  0  0  0  0  0
  1  2  1  0  0  0  0
  1  3  1  0  0  0  0
  1  6  1  0  0  0  0
  1 16  1  0  0  0  0
  2  4  1  0  0  0  0
  2  5  1  0  0  0  0
  2 17  1  0  0  0  0
  3  4  1  0  0  0  0
  3  7  1  0  0  0  0
  3  8  1  0  0  0  0
  4 18  1  0  0  0  0
  4 19  1  0  0  0  0
  5  9  1  0  0  0  0
  5 12  1  0  0  0  0
  5 20  1  0  0  0  0
  6 10  1  0  0  0  0
  6 21  1  0  0  0  0
  6 22  1  0  0  0  0
  7 23  1  0  0  0  0
  7 24  1  0  0  0  0
  7 25  1  0  0  0  0
  8 26  1  0  0  0  0
  8 27  1  0  0  0  0
  8 28  1  0  0  0  0
  9 13  1  0  0  0  0
  9 29  1  0  0  0  0
  9 30  1  0  0  0  0
 10 11  1  0  0  0  0
 10 31  1  0  0  0  0
 10 32  1  0  0  0  0
 11 14  1  0  0  0  0
 11 15  1  0  0  0  0
 11 33  1  0  0  0  0
 12 34  1  0  0  0  0
 12 35  1  0  0  0  0
 12 36  1  0  0  0  0
 13 14  1  0  0  0  0
 13 37  1  0  0  0  0
 13 38  1  0  0  0  0
 14 39  1  0  0  0  0
 14 40  1  0  0  0  0
 15 41  1  0  0  0  0
 15 42  1  0  0  0  0
 15 43  1  0  0  0  0
M  END
> <PUBCHEM_COMPOUND_CID>
177131

> <PUBCHEM_CONFORMER_RMSD>
0.6

> <PUBCHEM_CONFORMER_DIVERSEORDER>
8
29
50
36
31
58
55
2
49
10
54
34
23
11
46
20
37
30
61
38
56
16
26
32
59
60
57
51
53
33
44
35
42
41
22
40
24
27
18
13
1
48
52
47
7
25
39
3
21
19
12
17
9
43
15
14
5
28
4
6
45

> <PUBCHEM_MMFF94_PARTIAL_CHARGES>
0

> <PUBCHEM_EFFECTIVE_ROTOR_COUNT>
1.8

> <PUBCHEM_PHARMACOPHORE_FEATURES>
2
3 3 7 8 hydrophobe
4 1 2 3 4 rings

> <PUBCHEM_HEAVY_ATOM_COUNT>
15

> <PUBCHEM_ATOM_DEF_STEREO_COUNT>
0

> <PUBCHEM_ATOM_UDEF_STEREO_COUNT>
4

> <PUBCHEM_BOND_DEF_STEREO_COUNT>
0

> <PUBCHEM_BOND_UDEF_STEREO_COUNT>
0

> <PUBCHEM_ISOTOPIC_ATOM_COUNT>
0

> <PUBCHEM_COMPONENT_COUNT>
1

> <PUBCHEM_CACTVS_TAUTO_COUNT>
1

> <PUBCHEM_CONFORMER_ID>
0002B3EB00000008

> <PUBCHEM_MMFF94_ENERGY>
41.6384

> <PUBCHEM_FEATURE_SELFOVERLAP>
10.148

> <PUBCHEM_SHAPE_FINGERPRINT>
10967382 1 18123190095519454763
11206711 2 18339929336765013805
11680986 33 18338518530551062490
13140716 1 18339929203536625434
13380535 76 18337383838550323971
14181834 199 17902213525861313247
14251711 518 16608295984589781043
14614273 12 18408318878629776917
14817 1 12338836975949036683
15490181 8 18265911158823022218
15775835 57 18338798918573824085
15852999 172 18265318547730704073
16945 1 18195532725267800954
18186145 218 18271250430343008092
19868273 325 17690568906150661790
20388701 513 18053658367944129696
20510252 161 18270401714502917616
20511035 2 18409446960317059618
20645476 183 18114471131752135014
20645477 70 17906724805486710877
21160774 45 18195528314368062607
21524375 3 18335697226368196603
22721475 48 18123195863876811217
22802520 49 18058470749665403134
2334 1 18411986874899704066
23402539 116 18055339482236243975
23419403 2 15764960086165258139
23557571 272 17624144093460682580
23559900 14 18272937090682184428
23598291 2 17676204706320792052
238 59 17466749759811528445
241688 4 16826998755569828683
25 1 18193558870015292277
2748010 2 18340217327180764530
2897 32 17907020569133338561
305870 269 18336255743899511810
353137 74 18409727387199995683
63268167 104 17907018374542206947
7364860 26 17910668770131236962
81228 2 18051139386382895274

> <PUBCHEM_SHAPE_MULTIPOLES>
308.69
4.61
3.09
1.08
0.79
1.61
0.07
-2.52
0.39
-1.15
0.36
0.18
-0.21
0.32

> <PUBCHEM_SHAPE_SELFOVERLAP>
612.234

> <PUBCHEM_SHAPE_VOLUME>
186.2

> <PUBCHEM_COORDINATE_TYPE>
2
5
10

$$$$
