101140037
  -OEChem-02172602453D

 17 17  0     0  0  0  0  0  0999 V2000
    1.0957    1.2379   -0.3244 C   0  0  0  0  0  0  0  0  0  0  0  0
   -0.2825    1.2611    0.3386 C   0  0  0  0  0  0  0  0  0  0  0  0
    1.8848   -0.0150    0.0664 C   0  0  0  0  0  0  0  0  0  0  0  0
   -1.0589   -0.0018    0.0478 C   0  0  0  0  0  0  0  0  0  0  0  0
    1.0438   -1.2574    0.0245 C   0  0  0  0  0  0  0  0  0  0  0  0
   -0.2969   -1.2367   -0.0065 C   0  0  0  0  0  0  0  0  0  0  0  0
   -2.3861    0.0119   -0.1463 C   0  0  0  0  0  0  0  0  0  0  0  0
    1.6625    2.1337   -0.0462 H   0  0  0  0  0  0  0  0  0  0  0  0
    0.9747    1.2660   -1.4156 H   0  0  0  0  0  0  0  0  0  0  0  0
   -0.8301    2.1473   -0.0042 H   0  0  0  0  0  0  0  0  0  0  0  0
   -0.1595    1.3591    1.4251 H   0  0  0  0  0  0  0  0  0  0  0  0
    2.2922    0.0980    1.0779 H   0  0  0  0  0  0  0  0  0  0  0  0
    2.7360   -0.1270   -0.6147 H   0  0  0  0  0  0  0  0  0  0  0  0
    1.5601   -2.2129    0.0065 H   0  0  0  0  0  0  0  0  0  0  0  0
   -0.8398   -2.1754   -0.0726 H   0  0  0  0  0  0  0  0  0  0  0  0
   -2.9495    0.9384   -0.1006 H   1  0  0  0  0  0  0  0  0  0  0  0
   -2.9437   -0.8959   -0.3541 H   0  0  0  0  0  0  0  0  0  0  0  0
  1  2  1  0  0  0  0
  1  3  1  0  0  0  0
  1  8  1  0  0  0  0
  1  9  1  0  0  0  0
  2  4  1  0  0  0  0
  2 10  1  0  0  0  0
  2 11  1  0  0  0  0
  3  5  1  0  0  0  0
  3 12  1  0  0  0  0
  3 13  1  0  0  0  0
  4  6  1  0  0  0  0
  4  7  2  0  0  0  0
  5  6  2  0  0  0  0
  5 14  1  0  0  0  0
  6 15  1  0  0  0  0
  7 16  1  0  0  0  0
  7 17  1  0  0  0  0
M  ISO  1  16   2
M  END
> <PUBCHEM_COMPOUND_CID>
101140037

> <PUBCHEM_CONFORMER_RMSD>
0.4

> <PUBCHEM_CONFORMER_DIVERSEORDER>
1

> <PUBCHEM_MMFF94_PARTIAL_CHARGES>
10
14 0.15
15 0.15
16 0.15
17 0.15
2 0.14
3 0.14
4 -0.14
5 -0.29
6 -0.15
7 -0.3

> <PUBCHEM_EFFECTIVE_ROTOR_COUNT>
0.6

> <PUBCHEM_PHARMACOPHORE_FEATURES>
1
6 1 2 3 4 5 6 rings

> <PUBCHEM_HEAVY_ATOM_COUNT>
7

> <PUBCHEM_ATOM_DEF_STEREO_COUNT>
0

> <PUBCHEM_ATOM_UDEF_STEREO_COUNT>
0

> <PUBCHEM_BOND_DEF_STEREO_COUNT>
0

> <PUBCHEM_BOND_UDEF_STEREO_COUNT>
0

> <PUBCHEM_ISOTOPIC_ATOM_COUNT>
1

> <PUBCHEM_COMPONENT_COUNT>
1

> <PUBCHEM_CACTVS_TAUTO_COUNT>
1

> <PUBCHEM_CONFORMER_ID>
0607464500000001

> <PUBCHEM_MMFF94_ENERGY>
2.9744

> <PUBCHEM_FEATURE_SELFOVERLAP>
5.074

> <PUBCHEM_SHAPE_FINGERPRINT>
18185500 45 18341047441174254279
20096714 4 18337674229683975230
21040471 1 18194401314759681480
23552423 10 17974018249431400878
29004967 10 18333736792735169497

> <PUBCHEM_SHAPE_MULTIPOLES>
144.06
2.45
1.51
0.65
0.81
0
0
0.02
0.13
-0.35
-0.01
-0.01
0.04
-0.08

> <PUBCHEM_SHAPE_SELFOVERLAP>
283.321

> <PUBCHEM_SHAPE_VOLUME>
84.2

> <PUBCHEM_COORDINATE_TYPE>
2
5
10

$$$$
