93039
  -OEChem-02172602373D

 60 64  0     1  0  0  0  0  0999 V2000
    1.3876    2.0237   -1.1456 O   0  0  0  0  0  0  0  0  0  0  0  0
    3.1254   -0.0076    0.3264 O   0  0  0  0  0  0  0  0  0  0  0  0
   -1.6756    0.1239    2.2188 O   0  0  0  0  0  0  0  0  0  0  0  0
   -2.6218    1.1140    0.3316 O   0  0  0  0  0  0  0  0  0  0  0  0
   -1.5435    2.9527   -1.6766 O   0  0  0  0  0  0  0  0  0  0  0  0
   -3.6447   -0.9203   -0.1775 O   0  0  0  0  0  0  0  0  0  0  0  0
    3.3753   -1.2492   -1.5959 O   0  0  0  0  0  0  0  0  0  0  0  0
   -5.1730    2.2711    0.7325 O   0  0  0  0  0  0  0  0  0  0  0  0
   -7.2565    0.9155   -0.8490 O   0  0  0  0  0  0  0  0  0  0  0  0
   -7.1534   -1.9416   -0.4215 O   0  0  0  0  0  0  0  0  0  0  0  0
   -3.2968   -3.6444   -0.0569 O   0  0  0  0  0  0  0  0  0  0  0  0
    9.3458   -0.2063    0.3212 O   0  0  0  0  0  0  0  0  0  0  0  0
    0.1109    1.4406   -0.8496 C   0  0  1  0  0  0  0  0  0  0  0  0
    1.3056    0.5938   -1.0972 C   0  0  2  0  0  0  0  0  0  0  0  0
   -0.2546    1.3629    0.6126 C   0  0  2  0  0  0  0  0  0  0  0  0
    1.0222    0.7937    1.2894 C   0  0  2  0  0  0  0  0  0  0  0  0
    1.7140   -0.0506    0.1918 C   0  0  2  0  0  0  0  0  0  0  0  0
   -0.8962    1.6960   -1.9019 C   0  0  0  0  0  0  0  0  0  0  0  0
   -1.4662    0.4441    0.8378 C   0  0  1  0  0  0  0  0  0  0  0  0
    0.7110    0.0140    2.5246 C   0  0  0  0  0  0  0  0  0  0  0  0
   -0.5473   -0.2263    2.9059 C   0  0  0  0  0  0  0  0  0  0  0  0
   -3.7972    0.3229    0.5035 C   0  0  2  0  0  0  0  0  0  0  0  0
    3.8414   -0.6496   -0.6395 C   0  0  0  0  0  0  0  0  0  0  0  0
   -4.9793    1.1055   -0.0682 C   0  0  1  0  0  0  0  0  0  0  0  0
   -6.2574    0.2667   -0.0608 C   0  0  2  0  0  0  0  0  0  0  0  0
   -4.7809   -1.7726   -0.0234 C   0  0  1  0  0  0  0  0  0  0  0  0
   -6.0126   -1.1201   -0.6557 C   0  0  1  0  0  0  0  0  0  0  0  0
    5.2993   -0.5322   -0.3839 C   0  0  0  0  0  0  0  0  0  0  0  0
   -4.4476   -3.1072   -0.6828 C   0  0  0  0  0  0  0  0  0  0  0  0
    6.1335   -1.5477   -0.8046 C   0  0  0  0  0  0  0  0  0  0  0  0
    5.7752    0.5885    0.2656 C   0  0  0  0  0  0  0  0  0  0  0  0
    7.5033   -1.4377   -0.5653 C   0  0  0  0  0  0  0  0  0  0  0  0
    7.1450    0.6985    0.5047 C   0  0  0  0  0  0  0  0  0  0  0  0
    8.0091   -0.3146    0.0894 C   0  0  0  0  0  0  0  0  0  0  0  0
    1.3533    0.0061   -1.9989 H   0  0  0  0  0  0  0  0  0  0  0  0
   -0.4684    2.3653    1.0052 H   0  0  0  0  0  0  0  0  0  0  0  0
    1.6783    1.6297    1.5694 H   0  0  0  0  0  0  0  0  0  0  0  0
    1.3695   -1.0927    0.2232 H   0  0  0  0  0  0  0  0  0  0  0  0
   -1.6566    0.9114   -1.9456 H   0  0  0  0  0  0  0  0  0  0  0  0
   -0.4391    1.7400   -2.8972 H   0  0  0  0  0  0  0  0  0  0  0  0
   -1.3212   -0.4944    0.2848 H   0  0  0  0  0  0  0  0  0  0  0  0
    1.5344   -0.3137    3.1516 H   0  0  0  0  0  0  0  0  0  0  0  0
   -0.8000   -0.7132    3.8372 H   0  0  0  0  0  0  0  0  0  0  0  0
   -0.8551    3.6395   -1.6955 H   0  0  0  0  0  0  0  0  0  0  0  0
   -3.9595    0.1469    1.5750 H   0  0  0  0  0  0  0  0  0  0  0  0
   -4.7577    1.4522   -1.0845 H   0  0  0  0  0  0  0  0  0  0  0  0
   -6.6653    0.1889    0.9545 H   0  0  0  0  0  0  0  0  0  0  0  0
   -4.9397   -1.9541    1.0484 H   0  0  0  0  0  0  0  0  0  0  0  0
   -5.8871   -1.0230   -1.7420 H   0  0  0  0  0  0  0  0  0  0  0  0
   -5.2584   -3.8323   -0.5747 H   0  0  0  0  0  0  0  0  0  0  0  0
   -4.2225   -2.9836   -1.7473 H   0  0  0  0  0  0  0  0  0  0  0  0
   -5.3756    1.9842    1.6393 H   0  0  0  0  0  0  0  0  0  0  0  0
   -8.0487    0.3513   -0.8370 H   0  0  0  0  0  0  0  0  0  0  0  0
    5.7514   -2.4282   -1.3123 H   0  0  0  0  0  0  0  0  0  0  0  0
    5.1250    1.3968    0.5868 H   0  0  0  0  0  0  0  0  0  0  0  0
   -7.0868   -2.7166   -1.0038 H   0  0  0  0  0  0  0  0  0  0  0  0
   -2.5795   -2.9946   -0.1520 H   0  0  0  0  0  0  0  0  0  0  0  0
    8.1659   -2.2340   -0.8935 H   0  0  0  0  0  0  0  0  0  0  0  0
    7.5336    1.5773    1.0121 H   0  0  0  0  0  0  0  0  0  0  0  0
    9.7918   -0.9950   -0.0325 H   0  0  0  0  0  0  0  0  0  0  0  0
  1 13  1  0  0  0  0
  1 14  1  0  0  0  0
  2 17  1  0  0  0  0
  2 23  1  0  0  0  0
  3 19  1  0  0  0  0
  3 21  1  0  0  0  0
  4 19  1  0  0  0  0
  4 22  1  0  0  0  0
  5 18  1  0  0  0  0
  5 44  1  0  0  0  0
  6 22  1  0  0  0  0
  6 26  1  0  0  0  0
  7 23  2  0  0  0  0
  8 24  1  0  0  0  0
  8 52  1  0  0  0  0
  9 25  1  0  0  0  0
  9 53  1  0  0  0  0
 10 27  1  0  0  0  0
 10 56  1  0  0  0  0
 11 29  1  0  0  0  0
 11 57  1  0  0  0  0
 12 34  1  0  0  0  0
 12 60  1  0  0  0  0
 13 14  1  0  0  0  0
 13 15  1  0  0  0  0
 13 18  1  0  0  0  0
 14 17  1  0  0  0  0
 14 35  1  0  0  0  0
 15 16  1  0  0  0  0
 15 19  1  0  0  0  0
 15 36  1  0  0  0  0
 16 17  1  0  0  0  0
 16 20  1  0  0  0  0
 16 37  1  0  0  0  0
 17 38  1  0  0  0  0
 18 39  1  0  0  0  0
 18 40  1  0  0  0  0
 19 41  1  0  0  0  0
 20 21  2  0  0  0  0
 20 42  1  0  0  0  0
 21 43  1  0  0  0  0
 22 24  1  0  0  0  0
 22 45  1  0  0  0  0
 23 28  1  0  0  0  0
 24 25  1  0  0  0  0
 24 46  1  0  0  0  0
 25 27  1  0  0  0  0
 25 47  1  0  0  0  0
 26 27  1  0  0  0  0
 26 29  1  0  0  0  0
 26 48  1  0  0  0  0
 27 49  1  0  0  0  0
 28 30  2  0  0  0  0
 28 31  1  0  0  0  0
 29 50  1  0  0  0  0
 29 51  1  0  0  0  0
 30 32  1  0  0  0  0
 30 54  1  0  0  0  0
 31 33  2  0  0  0  0
 31 55  1  0  0  0  0
 32 34  2  0  0  0  0
 32 58  1  0  0  0  0
 33 34  1  0  0  0  0
 33 59  1  0  0  0  0
M  END
> <PUBCHEM_COMPOUND_CID>
93039

> <PUBCHEM_CONFORMER_RMSD>
1

> <PUBCHEM_CONFORMER_DIVERSEORDER>
1
45
71
14
44
26
94
3
124
6
54
11
39
115
93
64
78
20
58
74
126
65
43
38
109
80
92
82
63
70
24
34
95
76
35
49
57
59
18
122
116
77
12
90
83
32
4
108
17
103
86
41
2
50
23
89
97
52
106
30
69
15
40
7
96
21
46
68
13
111
88
75
87
28
101
105
85
102
33
48
60
125
5
53
16
42
51
110
123
91
36
29
120
9
61
100
22
10
118
66
25
19
79
121
55
73
62
81
113
27
98
114
47
99
37
117
31
56
104
84
119
112
67
8
107
72

> <PUBCHEM_MMFF94_PARTIAL_CHARGES>
47
1 -0.3
10 -0.68
11 -0.68
12 -0.53
13 -0.04
14 -0.05
15 0.09
16 0.14
17 0.38
18 0.38
19 0.56
2 -0.43
20 -0.29
21 -0.07
22 0.56
23 0.63
24 0.28
25 0.28
26 0.28
27 0.28
28 0.09
29 0.28
3 -0.36
30 -0.15
31 -0.15
32 -0.15
33 -0.15
34 0.08
35 0.1
4 -0.56
42 0.15
43 0.15
44 0.4
5 -0.68
52 0.4
53 0.4
54 0.15
55 0.15
56 0.4
57 0.4
58 0.15
59 0.15
6 -0.56
60 0.45
7 -0.57
8 -0.68
9 -0.68

> <PUBCHEM_EFFECTIVE_ROTOR_COUNT>
9

> <PUBCHEM_PHARMACOPHORE_FEATURES>
20
1 1 acceptor
1 10 acceptor
1 10 donor
1 11 acceptor
1 11 donor
1 12 donor
1 3 acceptor
1 4 acceptor
1 5 acceptor
1 5 donor
1 6 acceptor
1 7 acceptor
1 8 acceptor
1 8 donor
1 9 acceptor
1 9 donor
6 1 13 14 15 16 17 rings
6 28 30 31 32 33 34 rings
6 3 15 16 19 20 21 rings
6 6 22 24 25 26 27 rings

> <PUBCHEM_HEAVY_ATOM_COUNT>
34

> <PUBCHEM_ATOM_DEF_STEREO_COUNT>
11

> <PUBCHEM_ATOM_UDEF_STEREO_COUNT>
0

> <PUBCHEM_BOND_DEF_STEREO_COUNT>
0

> <PUBCHEM_BOND_UDEF_STEREO_COUNT>
0

> <PUBCHEM_ISOTOPIC_ATOM_COUNT>
0

> <PUBCHEM_COMPONENT_COUNT>
1

> <PUBCHEM_CACTVS_TAUTO_COUNT>
3

> <PUBCHEM_CONFORMER_ID>
00016B6F00000001

> <PUBCHEM_MMFF94_ENERGY>
100.0806

> <PUBCHEM_FEATURE_SELFOVERLAP>
101.658

> <PUBCHEM_SHAPE_FINGERPRINT>
10369192 42 13623529056808850979
10391435 84 18201431515247150186
10670039 82 14707198912356068207
11200772 48 18187649128165946435
11315181 36 17418375788106640849
117089 54 17975136758191125299
11796584 16 18202284701931463535
12236239 1 16701742641043749848
12741549 16 16630527350238227305
12977781 61 17977387466791772538
13782708 43 18410011010325265498
13911987 19 15791727499575428385
13947920 75 18186518804346972643
14068700 675 18187365437065108788
14279260 333 17458345217224260731
14294032 229 16372122196545259884
14394314 77 18340492166691589401
14767858 380 16877657959398058728
14849402 71 11095584724364707842
15183329 4 15140679189837150398
15461852 350 18334862702329296774
15961568 22 11314299551940200103
17492 89 17975136753990291239
18681886 176 18336539508510555337
20105231 36 17822300132783598587
22224240 67 12967128311101181476
23559900 14 18201711912387263593
23576562 1 14996860942709971183
249057 3 18334857230097940725
2838139 119 12252182999780247018
3009799 131 17385443228574074700
3178227 256 15626506111893782778
4325135 7 18343019991600743380
4625314 4 18413110559531785060
54039377 194 18262243334779737011
57527585 21 13769297966561462951
5969126 39 18040149600386702188
6009941 240 17988364771766438305
6703917 75 10807933808304798780
9689198 14 8646772196731618718
9862886 166 18060422429980968851

> <PUBCHEM_SHAPE_MULTIPOLES>
629.27
21.82
2.48
1.75
24.46
1.3
-1.01
8.49
3.3
-3.95
0.97
-0.25
-0.5
0.35

> <PUBCHEM_SHAPE_SELFOVERLAP>
1365.073

> <PUBCHEM_SHAPE_VOLUME>
339.5

> <PUBCHEM_COORDINATE_TYPE>
2
5
10

$$$$
