9548702
  -OEChem-02172602303D

 41 43  0     1  0  0  0  0  0999 V2000
    0.7783   -0.6292   -0.2156 C   0  0  1  0  0  0  0  0  0  0  0  0
    0.5018    0.5992    0.7059 C   0  0  2  0  0  0  0  0  0  0  0  0
   -0.7914    1.2727    0.1294 C   0  0  0  0  0  0  0  0  0  0  0  0
   -1.3343    0.2156   -0.8954 C   0  0  1  0  0  0  0  0  0  0  0  0
   -0.0190   -0.3045   -1.4929 C   0  0  0  0  0  0  0  0  0  0  0  0
    2.2993   -0.6391   -0.4756 C   0  0  1  0  0  0  0  0  0  0  0  0
    0.1861   -1.9262    0.3811 C   0  0  0  0  0  0  0  0  0  0  0  0
    1.8126    1.4005    0.7323 C   0  0  0  0  0  0  0  0  0  0  0  0
   -2.0938   -1.0374   -0.3770 C   0  0  1  0  0  0  0  0  0  0  0  0
    2.6716    0.8474   -0.3990 C   0  0  0  0  0  0  0  0  0  0  0  0
   -1.3136   -1.8115    0.6960 C   0  0  0  0  0  0  0  0  0  0  0  0
   -0.5232    2.5969   -0.6308 C   0  0  0  0  0  0  0  0  0  0  0  0
   -1.7578    1.6362    1.2649 C   0  0  0  0  0  0  0  0  0  0  0  0
    3.1198   -1.4522    0.5277 C   0  0  0  0  0  0  0  0  0  0  0  0
   -3.5363   -0.7684    0.0491 C   0  0  0  0  0  0  0  0  0  0  0  0
    0.3151    0.2631    1.7343 H   0  0  0  0  0  0  0  0  0  0  0  0
   -1.9393    0.6936   -1.6754 H   0  0  0  0  0  0  0  0  0  0  0  0
   -0.1552   -1.1821   -2.1358 H   0  0  0  0  0  0  0  0  0  0  0  0
    0.4644    0.4561   -2.1137 H   0  0  0  0  0  0  0  0  0  0  0  0
    2.5223   -1.0264   -1.4773 H   0  0  0  0  0  0  0  0  0  0  0  0
    0.7000   -2.2076    1.3071 H   0  0  0  0  0  0  0  0  0  0  0  0
    0.3401   -2.7509   -0.3266 H   0  0  0  0  0  0  0  0  0  0  0  0
    2.3216    1.2076    1.6857 H   0  0  0  0  0  0  0  0  0  0  0  0
    1.6946    2.4837    0.6726 H   0  0  0  0  0  0  0  0  0  0  0  0
   -2.1809   -1.7144   -1.2408 H   0  0  0  0  0  0  0  0  0  0  0  0
    2.4224    1.3521   -1.3390 H   0  0  0  0  0  0  0  0  0  0  0  0
    3.7384    1.0121   -0.2167 H   0  0  0  0  0  0  0  0  0  0  0  0
   -1.7353   -2.8178    0.8103 H   0  0  0  0  0  0  0  0  0  0  0  0
   -1.4351   -1.3311    1.6727 H   0  0  0  0  0  0  0  0  0  0  0  0
   -1.4386    2.9518   -1.1193 H   0  0  0  0  0  0  0  0  0  0  0  0
   -0.2002    3.3937    0.0483 H   0  0  0  0  0  0  0  0  0  0  0  0
    0.2393    2.4965   -1.4076 H   0  0  0  0  0  0  0  0  0  0  0  0
   -1.3441    2.4414    1.8840 H   0  0  0  0  0  0  0  0  0  0  0  0
   -2.7184    1.9846    0.8702 H   0  0  0  0  0  0  0  0  0  0  0  0
   -1.9454    0.8008    1.9426 H   0  0  0  0  0  0  0  0  0  0  0  0
    2.9095   -2.5218    0.4261 H   0  0  0  0  0  0  0  0  0  0  0  0
    4.1917   -1.3151    0.3478 H   0  0  0  0  0  0  0  0  0  0  0  0
    2.9142   -1.1604    1.5625 H   0  0  0  0  0  0  0  0  0  0  0  0
   -4.0566   -0.1580   -0.6959 H   0  0  0  0  0  0  0  0  0  0  0  0
   -4.0822   -1.7144    0.1400 H   0  0  0  0  0  0  0  0  0  0  0  0
   -3.6106   -0.2688    1.0163 H   0  0  0  0  0  0  0  0  0  0  0  0
  1  2  1  0  0  0  0
  1  5  1  0  0  0  0
  1  6  1  0  0  0  0
  1  7  1  0  0  0  0
  2  3  1  0  0  0  0
  2  8  1  0  0  0  0
  2 16  1  0  0  0  0
  3  4  1  0  0  0  0
  3 12  1  0  0  0  0
  3 13  1  0  0  0  0
  4  5  1  0  0  0  0
  4  9  1  0  0  0  0
  4 17  1  0  0  0  0
  5 18  1  0  0  0  0
  5 19  1  0  0  0  0
  6 10  1  0  0  0  0
  6 14  1  0  0  0  0
  6 20  1  0  0  0  0
  7 11  1  0  0  0  0
  7 21  1  0  0  0  0
  7 22  1  0  0  0  0
  8 10  1  0  0  0  0
  8 23  1  0  0  0  0
  8 24  1  0  0  0  0
  9 11  1  0  0  0  0
  9 15  1  0  0  0  0
  9 25  1  0  0  0  0
 10 26  1  0  0  0  0
 10 27  1  0  0  0  0
 11 28  1  0  0  0  0
 11 29  1  0  0  0  0
 12 30  1  0  0  0  0
 12 31  1  0  0  0  0
 12 32  1  0  0  0  0
 13 33  1  0  0  0  0
 13 34  1  0  0  0  0
 13 35  1  0  0  0  0
 14 36  1  0  0  0  0
 14 37  1  0  0  0  0
 14 38  1  0  0  0  0
 15 39  1  0  0  0  0
 15 40  1  0  0  0  0
 15 41  1  0  0  0  0
M  END
> <PUBCHEM_COMPOUND_CID>
9548702

> <PUBCHEM_CONFORMER_RMSD>
0.6

> <PUBCHEM_CONFORMER_DIVERSEORDER>
1

> <PUBCHEM_MMFF94_PARTIAL_CHARGES>
0

> <PUBCHEM_EFFECTIVE_ROTOR_COUNT>
1.6

> <PUBCHEM_PHARMACOPHORE_FEATURES>
3
3 3 12 13 hydrophobe
5 1 2 6 8 10 rings
8 1 2 3 4 5 7 9 11 rings

> <PUBCHEM_HEAVY_ATOM_COUNT>
15

> <PUBCHEM_ATOM_DEF_STEREO_COUNT>
5

> <PUBCHEM_ATOM_UDEF_STEREO_COUNT>
0

> <PUBCHEM_BOND_DEF_STEREO_COUNT>
0

> <PUBCHEM_BOND_UDEF_STEREO_COUNT>
0

> <PUBCHEM_ISOTOPIC_ATOM_COUNT>
0

> <PUBCHEM_COMPONENT_COUNT>
1

> <PUBCHEM_CACTVS_TAUTO_COUNT>
1

> <PUBCHEM_CONFORMER_ID>
0091B39E00000001

> <PUBCHEM_MMFF94_ENERGY>
69.3305

> <PUBCHEM_FEATURE_SELFOVERLAP>
15.282

> <PUBCHEM_SHAPE_FINGERPRINT>
10702982 57 17905038158205626052
10863032 1 18411136948190299425
10967382 1 18337390572816405414
11132069 177 18200032832991723563
12382932 28 18124310777120251778
12423570 1 14590043001667939053
12491281 212 17417271891074571625
12524768 44 18199750408874882110
13024252 1 17096376037831258390
13140716 1 18339922606398449320
14617773 55 18130792243678998385
14817 1 11443880114949814981
15076042 46 18343585131201515034
15490181 7 17904490597120143221
15775835 57 18266751172742860128
16945 1 17846498144771567071
193761 8 17904759977648465295
19837323 101 16485559906446353201
20511035 2 17768250467983942309
20525323 117 17988633048023538822
20588541 1 18192989546140369674
21501502 16 18341057336968821368
22344851 341 17983022154229909099
2334 1 18411136952306068000
23402539 116 18342164587916934775
23419403 2 14541910518715622647
23559900 14 17839454498314760850
241688 4 18409728434966521433
2748010 2 18410566318661214709
353137 74 18408879633443388305
369184 2 18408600357658816278
5084963 1 18341323392981336292
5255222 1 18122345674900413160
528886 8 18267862967961044594
53655031 270 18340488872514840435
68250623 7 18200884980183382710
81228 2 18339090306218704217

> <PUBCHEM_SHAPE_MULTIPOLES>
308.69
4
2.34
1.12
0.27
0.62
-0.08
-1.17
0.31
-0.27
0.31
-0.13
0.16
-0.15

> <PUBCHEM_SHAPE_SELFOVERLAP>
652.189

> <PUBCHEM_SHAPE_VOLUME>
173.4

> <PUBCHEM_COORDINATE_TYPE>
2
5
10

$$$$
