101460368
  -OEChem-02172602503D

 35 37  0     1  0  0  0  0  0999 V2000
   -1.0359   -1.0141   -2.1592 S   0  0  0  0  0  0  0  0  0  0  0  0
   -5.0440   -0.1200    0.2505 S   0  0  0  0  0  0  0  0  0  0  0  0
   -3.5913    2.4122    0.3593 S   0  0  0  0  0  0  0  0  0  0  0  0
   -3.3171   -2.5314   -0.2001 O   0  0  0  0  0  0  0  0  0  0  0  0
   -3.3426   -0.2190    0.1634 N   0  0  0  0  0  0  0  0  0  0  0  0
   -1.3426    1.0340    0.4466 N   0  0  0  0  0  0  0  0  0  0  0  0
    5.0298    0.2484   -0.0960 N   0  0  0  0  0  0  0  0  0  0  0  0
   -0.6317   -0.2558    0.5489 C   0  0  1  0  0  0  0  0  0  0  0  0
   -1.2480   -1.3272   -0.3674 C   0  0  1  0  0  0  0  0  0  0  0  0
    0.8731   -0.1217    0.3782 C   0  0  0  0  0  0  0  0  0  0  0  0
   -2.7398   -1.4488   -0.1066 C   0  0  0  0  0  0  0  0  0  0  0  0
   -2.6221    0.9537    0.3262 C   0  0  0  0  0  0  0  0  0  0  0  0
    1.3929    0.8265   -0.5030 C   0  0  0  0  0  0  0  0  0  0  0  0
    1.7338   -0.9471    1.1019 C   0  0  0  0  0  0  0  0  0  0  0  0
    3.6340    0.1242    0.0636 C   0  0  0  0  0  0  0  0  0  0  0  0
    2.7733    0.9495   -0.6603 C   0  0  0  0  0  0  0  0  0  0  0  0
    3.1142   -0.8241    0.9447 C   0  0  0  0  0  0  0  0  0  0  0  0
   -5.1481    1.6397   -0.1267 C   0  0  0  0  0  0  0  0  0  0  0  0
    5.9327   -0.6046    0.6508 C   0  0  0  0  0  0  0  0  0  0  0  0
    5.5794    1.2256   -1.0147 C   0  0  0  0  0  0  0  0  0  0  0  0
   -0.7880   -0.5818    1.5891 H   0  0  0  0  0  0  0  0  0  0  0  0
   -0.7881   -2.2989   -0.1513 H   0  0  0  0  0  0  0  0  0  0  0  0
    0.7437    1.4812   -1.0779 H   0  0  0  0  0  0  0  0  0  0  0  0
    1.3407   -1.6915    1.7893 H   0  0  0  0  0  0  0  0  0  0  0  0
    3.1281    1.7019   -1.3576 H   0  0  0  0  0  0  0  0  0  0  0  0
    3.7413   -1.4897    1.5294 H   0  0  0  0  0  0  0  0  0  0  0  0
   -5.9850    2.0970    0.4069 H   0  0  0  0  0  0  0  0  0  0  0  0
   -5.2970    1.7720   -1.2019 H   0  0  0  0  0  0  0  0  0  0  0  0
   -1.5800   -2.1645   -2.5827 H   0  0  0  0  0  0  0  0  0  0  0  0
    5.8152   -0.4569    1.7301 H   0  0  0  0  0  0  0  0  0  0  0  0
    5.7739   -1.6605    0.4049 H   0  0  0  0  0  0  0  0  0  0  0  0
    6.9811   -0.3854    0.4195 H   0  0  0  0  0  0  0  0  0  0  0  0
    5.2512    1.0318   -2.0420 H   0  0  0  0  0  0  0  0  0  0  0  0
    5.2978    2.2439   -0.7247 H   0  0  0  0  0  0  0  0  0  0  0  0
    6.6748    1.1978   -1.0277 H   0  0  0  0  0  0  0  0  0  0  0  0
  1  9  1  0  0  0  0
  1 29  1  0  0  0  0
  2  5  1  0  0  0  0
  2 18  1  0  0  0  0
  3 12  1  0  0  0  0
  3 18  1  0  0  0  0
  4 11  2  0  0  0  0
  5 11  1  0  0  0  0
  5 12  1  0  0  0  0
  6  8  1  0  0  0  0
  6 12  2  0  0  0  0
  7 15  1  0  0  0  0
  7 19  1  0  0  0  0
  7 20  1  0  0  0  0
  8  9  1  0  0  0  0
  8 10  1  0  0  0  0
  8 21  1  0  0  0  0
  9 11  1  0  0  0  0
  9 22  1  0  0  0  0
 10 13  2  0  0  0  0
 10 14  1  0  0  0  0
 13 16  1  0  0  0  0
 13 23  1  0  0  0  0
 14 17  2  0  0  0  0
 14 24  1  0  0  0  0
 15 16  2  0  0  0  0
 15 17  1  0  0  0  0
 16 25  1  0  0  0  0
 17 26  1  0  0  0  0
 18 27  1  0  0  0  0
 18 28  1  0  0  0  0
 19 30  1  0  0  0  0
 19 31  1  0  0  0  0
 19 32  1  0  0  0  0
 20 33  1  0  0  0  0
 20 34  1  0  0  0  0
 20 35  1  0  0  0  0
M  END
> <PUBCHEM_COMPOUND_CID>
101460368

> <PUBCHEM_CONFORMER_RMSD>
0.6

> <PUBCHEM_CONFORMER_DIVERSEORDER>
1
5
4
3
2

> <PUBCHEM_MMFF94_PARTIAL_CHARGES>
25
1 -0.41
10 -0.14
11 0.57
12 0.65
13 -0.15
14 -0.15
15 0.1
16 -0.15
17 -0.15
18 0.46
19 0.37
2 -0.22
20 0.37
23 0.15
24 0.15
25 0.15
26 0.15
29 0.18
3 -0.37
4 -0.57
5 -0.13
6 -0.7
7 -0.84
8 0.39
9 0.29

> <PUBCHEM_EFFECTIVE_ROTOR_COUNT>
3

> <PUBCHEM_PHARMACOPHORE_FEATURES>
5
1 4 acceptor
1 7 cation
5 2 3 5 12 18 rings
6 10 13 14 15 16 17 rings
6 5 6 8 9 11 12 rings

> <PUBCHEM_HEAVY_ATOM_COUNT>
20

> <PUBCHEM_ATOM_DEF_STEREO_COUNT>
2

> <PUBCHEM_ATOM_UDEF_STEREO_COUNT>
0

> <PUBCHEM_BOND_DEF_STEREO_COUNT>
0

> <PUBCHEM_BOND_UDEF_STEREO_COUNT>
0

> <PUBCHEM_ISOTOPIC_ATOM_COUNT>
0

> <PUBCHEM_COMPONENT_COUNT>
1

> <PUBCHEM_CACTVS_TAUTO_COUNT>
1

> <PUBCHEM_CONFORMER_ID>
060C299000000001

> <PUBCHEM_MMFF94_ENERGY>
63.9275

> <PUBCHEM_FEATURE_SELFOVERLAP>
25.431

> <PUBCHEM_SHAPE_FINGERPRINT>
10366900 7 16988559074415343339
10411042 1 17980197806155648135
11089746 13 18272077297594566104
11315181 36 17846503651637000600
12107183 9 17758109298410031128
12236239 1 18259985976518137128
12390115 104 17916317039374570001
12403259 415 17274815865997569961
12596602 18 17676491644295625409
12616971 3 17822286877944063130
13167823 11 18407759248818126194
13583140 156 17775277283451489218
13760787 19 18408039610865524795
13760787 5 17167860877185923066
14386348 63 16630531743013447044
15342168 16 17095820913598531092
16752209 62 18129929170196500671
17834072 33 18334577966723276232
1813 80 16878232956898613862
19489759 90 18060698373129310601
200 152 18187080706228380546
20279233 1 16272210803515863454
20602899 9 15339110248051292615
20645477 56 18341896273162981153
21033648 29 16845279519339670192
21267235 1 18335428975437502499
22182313 1 17631474326734379711
23175994 123 14562532877122546535
23402539 116 18201432575792530677
23402655 69 18333450937018527720
23419403 2 13827557840626396823
23557571 272 18060144227647998952
23559900 14 18131910477396492808
268830 7 17821723962403530268
300161 21 18409161108710294880
3004659 81 18340491059149351870
34797466 226 17703238411798626732
34934 24 18335700511838862560
3545911 37 18412546491831818744
4214541 1 18410573980861979577
474 4 17531253902087201236
5104073 3 18114178666297207312
542803 24 18040436590159013744
559249 180 18410852127624320090
573450 72 18409161117484839490
58051976 100 18342174496421985941
59755656 215 18271249309646707590
59755656 520 16950284005068740323
633830 44 18113623396030062574

> <PUBCHEM_SHAPE_MULTIPOLES>
402.33
12.34
1.95
1.17
8.84
0.07
-0.52
3.41
0.45
-2.38
-0.16
0.42
-0.29
-1.18

> <PUBCHEM_SHAPE_SELFOVERLAP>
821.139

> <PUBCHEM_SHAPE_VOLUME>
237

> <PUBCHEM_COORDINATE_TYPE>
2
5
10

$$$$
