14336535
  -OEChem-02172602303D

 52 52  0     0  0  0  0  0  0999 V2000
   -1.8029   -0.9169   -0.7929 C   0  0  0  0  0  0  0  0  0  0  0  0
   -2.7124    0.1505   -0.2255 C   0  0  0  0  0  0  0  0  0  0  0  0
   -1.2518   -1.8576    0.2904 C   0  0  0  0  0  0  0  0  0  0  0  0
   -2.2527    1.5901   -0.3237 C   0  0  0  0  0  0  0  0  0  0  0  0
    0.0899   -2.4495   -0.0910 C   0  0  0  0  0  0  0  0  0  0  0  0
    1.3718    2.7205    0.7010 C   0  0  0  0  0  0  0  0  0  0  0  0
    2.6162   -2.4901    0.3444 C   0  0  0  0  0  0  0  0  0  0  0  0
    3.3939   -1.4793   -0.5104 C   0  0  0  0  0  0  0  0  0  0  0  0
    0.0874    2.5931   -0.1001 C   0  0  0  0  0  0  0  0  0  0  0  0
    2.6565    2.3546   -0.0588 C   0  0  0  0  0  0  0  0  0  0  0  0
   -3.9025   -0.1657    0.3110 C   0  0  0  0  0  0  0  0  0  0  0  0
   -0.9299    1.8347    0.3573 C   0  0  0  0  0  0  0  0  0  0  0  0
    1.1941   -2.0644    0.5767 C   0  0  0  0  0  0  0  0  0  0  0  0
    3.4561   -0.0791    0.0765 C   0  0  0  0  0  0  0  0  0  0  0  0
    2.7152    0.9083   -0.4650 C   0  0  0  0  0  0  0  0  0  0  0  0
    0.0690   -3.4326   -1.2273 C   0  0  0  0  0  0  0  0  0  0  0  0
    0.0272    3.4040   -1.3666 C   0  0  0  0  0  0  0  0  0  0  0  0
   -4.3709   -1.5856    0.4149 C   0  0  0  0  0  0  0  0  0  0  0  0
   -4.8356    0.8820    0.8382 C   0  0  0  0  0  0  0  0  0  0  0  0
    4.3813    0.0831    1.2508 C   0  0  0  0  0  0  0  0  0  0  0  0
   -2.3202   -1.4855   -1.5759 H   0  0  0  0  0  0  0  0  0  0  0  0
   -0.9705   -0.4270   -1.3163 H   0  0  0  0  0  0  0  0  0  0  0  0
   -1.9391   -2.6890    0.4811 H   0  0  0  0  0  0  0  0  0  0  0  0
   -1.1649   -1.3209    1.2446 H   0  0  0  0  0  0  0  0  0  0  0  0
   -2.9652    2.3025    0.1005 H   0  0  0  0  0  0  0  0  0  0  0  0
   -2.1931    1.8247   -1.3926 H   0  0  0  0  0  0  0  0  0  0  0  0
    1.4552    3.7631    1.0351 H   0  0  0  0  0  0  0  0  0  0  0  0
    1.3194    2.1165    1.6166 H   0  0  0  0  0  0  0  0  0  0  0  0
    3.1019   -2.6175    1.3194 H   0  0  0  0  0  0  0  0  0  0  0  0
    2.6655   -3.4746   -0.1317 H   0  0  0  0  0  0  0  0  0  0  0  0
    2.9517   -1.4519   -1.5156 H   0  0  0  0  0  0  0  0  0  0  0  0
    4.4185   -1.8458   -0.6533 H   0  0  0  0  0  0  0  0  0  0  0  0
    3.5158    2.6294    0.5604 H   0  0  0  0  0  0  0  0  0  0  0  0
    2.7525    2.9686   -0.9628 H   0  0  0  0  0  0  0  0  0  0  0  0
   -0.8055    1.3393    1.3196 H   0  0  0  0  0  0  0  0  0  0  0  0
    1.0761   -1.3381    1.3806 H   0  0  0  0  0  0  0  0  0  0  0  0
    2.0791    0.6586   -1.3137 H   0  0  0  0  0  0  0  0  0  0  0  0
   -0.5649   -4.2881   -0.9715 H   0  0  0  0  0  0  0  0  0  0  0  0
    1.0571   -3.8211   -1.4833 H   0  0  0  0  0  0  0  0  0  0  0  0
   -0.3328   -2.9645   -2.1316 H   0  0  0  0  0  0  0  0  0  0  0  0
    0.4620    4.3961   -1.2023 H   0  0  0  0  0  0  0  0  0  0  0  0
   -0.9938    3.5723   -1.7187 H   0  0  0  0  0  0  0  0  0  0  0  0
    0.5878    2.9085   -2.1652 H   0  0  0  0  0  0  0  0  0  0  0  0
   -4.1621   -1.9833    1.4132 H   0  0  0  0  0  0  0  0  0  0  0  0
   -5.4558   -1.6320    0.2616 H   0  0  0  0  0  0  0  0  0  0  0  0
   -3.9554   -2.2584   -0.3377 H   0  0  0  0  0  0  0  0  0  0  0  0
   -5.7309    0.4287    1.2783 H   0  0  0  0  0  0  0  0  0  0  0  0
   -4.3667    1.4691    1.6348 H   0  0  0  0  0  0  0  0  0  0  0  0
   -5.1769    1.5459    0.0372 H   0  0  0  0  0  0  0  0  0  0  0  0
    5.4105   -0.1399    0.9511 H   0  0  0  0  0  0  0  0  0  0  0  0
    4.1015   -0.6028    2.0564 H   0  0  0  0  0  0  0  0  0  0  0  0
    4.3729    1.0877    1.6783 H   0  0  0  0  0  0  0  0  0  0  0  0
  1  2  1  0  0  0  0
  1  3  1  0  0  0  0
  1 21  1  0  0  0  0
  1 22  1  0  0  0  0
  2  4  1  0  0  0  0
  2 11  2  0  0  0  0
  3  5  1  0  0  0  0
  3 23  1  0  0  0  0
  3 24  1  0  0  0  0
  4 12  1  0  0  0  0
  4 25  1  0  0  0  0
  4 26  1  0  0  0  0
  5 13  2  0  0  0  0
  5 16  1  0  0  0  0
  6  9  1  0  0  0  0
  6 10  1  0  0  0  0
  6 27  1  0  0  0  0
  6 28  1  0  0  0  0
  7  8  1  0  0  0  0
  7 13  1  0  0  0  0
  7 29  1  0  0  0  0
  7 30  1  0  0  0  0
  8 14  1  0  0  0  0
  8 31  1  0  0  0  0
  8 32  1  0  0  0  0
  9 12  2  0  0  0  0
  9 17  1  0  0  0  0
 10 15  1  0  0  0  0
 10 33  1  0  0  0  0
 10 34  1  0  0  0  0
 11 18  1  0  0  0  0
 11 19  1  0  0  0  0
 12 35  1  0  0  0  0
 13 36  1  0  0  0  0
 14 15  2  0  0  0  0
 14 20  1  0  0  0  0
 15 37  1  0  0  0  0
 16 38  1  0  0  0  0
 16 39  1  0  0  0  0
 16 40  1  0  0  0  0
 17 41  1  0  0  0  0
 17 42  1  0  0  0  0
 17 43  1  0  0  0  0
 18 44  1  0  0  0  0
 18 45  1  0  0  0  0
 18 46  1  0  0  0  0
 19 47  1  0  0  0  0
 19 48  1  0  0  0  0
 19 49  1  0  0  0  0
 20 50  1  0  0  0  0
 20 51  1  0  0  0  0
 20 52  1  0  0  0  0
M  END
> <PUBCHEM_COMPOUND_CID>
14336535

> <PUBCHEM_CONFORMER_RMSD>
0.6

> <PUBCHEM_CONFORMER_DIVERSEORDER>
5
4
3
10
1
13
14
15
18
6
2
8
16
12
17
9
11
7

> <PUBCHEM_MMFF94_PARTIAL_CHARGES>
23
1 0.14
10 0.14
11 -0.28
12 -0.29
13 -0.29
14 -0.28
15 -0.29
16 0.14
17 0.14
18 0.14
19 0.14
2 -0.28
20 0.14
3 0.14
35 0.15
36 0.15
37 0.15
4 0.28
5 -0.28
6 0.14
7 0.14
8 0.14
9 -0.28

> <PUBCHEM_EFFECTIVE_ROTOR_COUNT>
1.4

> <PUBCHEM_PHARMACOPHORE_FEATURES>
1
3 11 18 19 hydrophobe

> <PUBCHEM_HEAVY_ATOM_COUNT>
20

> <PUBCHEM_ATOM_DEF_STEREO_COUNT>
0

> <PUBCHEM_ATOM_UDEF_STEREO_COUNT>
0

> <PUBCHEM_BOND_DEF_STEREO_COUNT>
3

> <PUBCHEM_BOND_UDEF_STEREO_COUNT>
0

> <PUBCHEM_ISOTOPIC_ATOM_COUNT>
0

> <PUBCHEM_COMPONENT_COUNT>
1

> <PUBCHEM_CACTVS_TAUTO_COUNT>
1

> <PUBCHEM_CONFORMER_ID>
00DAC21700000005

> <PUBCHEM_MMFF94_ENERGY>
30.4709

> <PUBCHEM_FEATURE_SELFOVERLAP>
5.074

> <PUBCHEM_SHAPE_FINGERPRINT>
10675989 125 16827259950396757143
10708813 3 18199762366106272929
10967382 1 18410574028364907204
12038231 1 18194680608035372198
12553582 1 18410568513775073156
12596599 1 17845108271900928323
12633257 1 18338227267206233814
12838862 33 18339059558843737752
13075007 39 17824286949603373585
13122387 1 18410290315662723644
13140716 1 18193830664409790816
13402501 40 18411418380407189226
138480 1 18410013208720695328
14178342 30 18052532176154065136
1420 336 18194396917082409526
14223421 5 17978229357237446743
14251705 54 18193555571485566752
14765038 42 18200328713616423120
14790565 3 18338247071195811140
15196674 1 18410857676336574361
18785283 64 18044110161781911321
19591789 44 18339080514041597659
19930381 70 18410292523244661515
20621476 7 18339367353147611537
20905425 154 18193556662433679326
22113638 7 18338792446121133380
23227448 37 18341611564018316151
238 59 17903310992979051749
2818148 4 17264161383270412310
3014063 31 18266741285696528653
3680242 22 18262801761309111099
44154327 71 18410299103060478686
5312544 6 17831863821653682031
57091435 65 18263350413775664666
5939293 188 18340204202113999440
6287921 2 17987247637745551871
6438718 38 17773024474726587398
6443956 14 18411144606191516749
7064713 232 18272928323504219728
7832392 63 18341327903035094534

> <PUBCHEM_SHAPE_MULTIPOLES>
411.59
7.77
4.42
1.03
3.53
0.4
0.09
-0.76
-2.34
-1.43
1.06
-0.18
0.08
0.01

> <PUBCHEM_SHAPE_SELFOVERLAP>
803.829

> <PUBCHEM_SHAPE_VOLUME>
243.6

> <PUBCHEM_COORDINATE_TYPE>
2
5
10

$$$$
