5367676
  -OEChem-02172602443D

 41 40  0     0  0  0  0  0  0999 V2000
   -2.3093    0.9669   -0.1518 O   0  0  0  0  0  0  0  0  0  0  0  0
   -1.0191    2.8876   -0.1194 O   0  0  0  0  0  0  0  0  0  0  0  0
    4.6929   -0.9027   -0.0767 C   0  0  0  0  0  0  0  0  0  0  0  0
    5.9776   -0.0811    0.0493 C   0  0  0  0  0  0  0  0  0  0  0  0
    3.4548    0.0005   -0.0798 C   0  0  0  0  0  0  0  0  0  0  0  0
    7.2123   -0.9814    0.0823 C   0  0  0  0  0  0  0  0  0  0  0  0
    2.1459   -0.7856   -0.1751 C   0  0  0  0  0  0  0  0  0  0  0  0
    8.4887   -0.1709    0.2419 C   0  0  0  0  0  0  0  0  0  0  0  0
    0.9673    0.0919   -0.1633 C   0  0  0  0  0  0  0  0  0  0  0  0
   -4.7219    0.8361   -0.1542 C   0  0  0  0  0  0  0  0  0  0  0  0
   -3.5051    1.7535   -0.1387 C   0  0  0  0  0  0  0  0  0  0  0  0
   -4.7651   -0.0505    1.0584 C   0  0  0  0  0  0  0  0  0  0  0  0
   -4.6719   -2.1727   -0.2732 C   0  0  0  0  0  0  0  0  0  0  0  0
   -4.7428   -1.3905    1.0046 C   0  0  0  0  0  0  0  0  0  0  0  0
    0.0037    0.8087   -0.1535 C   0  0  0  0  0  0  0  0  0  0  0  0
   -6.0605   -2.4825   -0.8108 C   0  0  0  0  0  0  0  0  0  0  0  0
   -1.1473    1.6726   -0.1398 C   0  0  0  0  0  0  0  0  0  0  0  0
    4.6251   -1.6109    0.7579 H   0  0  0  0  0  0  0  0  0  0  0  0
    4.7195   -1.4920   -1.0011 H   0  0  0  0  0  0  0  0  0  0  0  0
    6.0529    0.6170   -0.7933 H   0  0  0  0  0  0  0  0  0  0  0  0
    5.9391    0.5210    0.9654 H   0  0  0  0  0  0  0  0  0  0  0  0
    3.5205    0.7041   -0.9199 H   0  0  0  0  0  0  0  0  0  0  0  0
    3.4472    0.6086    0.8343 H   0  0  0  0  0  0  0  0  0  0  0  0
    7.1334   -1.6923    0.9130 H   0  0  0  0  0  0  0  0  0  0  0  0
    7.2701   -1.5677   -0.8421 H   0  0  0  0  0  0  0  0  0  0  0  0
    2.0803   -1.4904    0.6621 H   0  0  0  0  0  0  0  0  0  0  0  0
    2.1443   -1.3833   -1.0942 H   0  0  0  0  0  0  0  0  0  0  0  0
    9.3590   -0.8344    0.2616 H   0  0  0  0  0  0  0  0  0  0  0  0
    8.6146    0.5301   -0.5894 H   0  0  0  0  0  0  0  0  0  0  0  0
    8.4764    0.4010    1.1752 H   0  0  0  0  0  0  0  0  0  0  0  0
   -4.7329    0.2791   -1.0939 H   0  0  0  0  0  0  0  0  0  0  0  0
   -5.6288    1.4529   -0.1547 H   0  0  0  0  0  0  0  0  0  0  0  0
   -3.5148    2.3854    0.7580 H   0  0  0  0  0  0  0  0  0  0  0  0
   -3.5239    2.3977   -1.0257 H   0  0  0  0  0  0  0  0  0  0  0  0
   -4.8320    0.4323    2.0298 H   0  0  0  0  0  0  0  0  0  0  0  0
   -4.1555   -3.1172   -0.0604 H   0  0  0  0  0  0  0  0  0  0  0  0
   -4.0611   -1.6809   -1.0363 H   0  0  0  0  0  0  0  0  0  0  0  0
   -4.7979   -1.9526    1.9330 H   0  0  0  0  0  0  0  0  0  0  0  0
   -5.9859   -3.0982   -1.7130 H   0  0  0  0  0  0  0  0  0  0  0  0
   -6.6020   -1.5672   -1.0719 H   0  0  0  0  0  0  0  0  0  0  0  0
   -6.6570   -3.0337   -0.0758 H   0  0  0  0  0  0  0  0  0  0  0  0
  1 11  1  0  0  0  0
  1 17  1  0  0  0  0
  2 17  2  0  0  0  0
  3  4  1  0  0  0  0
  3  5  1  0  0  0  0
  3 18  1  0  0  0  0
  3 19  1  0  0  0  0
  4  6  1  0  0  0  0
  4 20  1  0  0  0  0
  4 21  1  0  0  0  0
  5  7  1  0  0  0  0
  5 22  1  0  0  0  0
  5 23  1  0  0  0  0
  6  8  1  0  0  0  0
  6 24  1  0  0  0  0
  6 25  1  0  0  0  0
  7  9  1  0  0  0  0
  7 26  1  0  0  0  0
  7 27  1  0  0  0  0
  8 28  1  0  0  0  0
  8 29  1  0  0  0  0
  8 30  1  0  0  0  0
  9 15  3  0  0  0  0
 10 11  1  0  0  0  0
 10 12  1  0  0  0  0
 10 31  1  0  0  0  0
 10 32  1  0  0  0  0
 11 33  1  0  0  0  0
 11 34  1  0  0  0  0
 12 14  2  0  0  0  0
 12 35  1  0  0  0  0
 13 14  1  0  0  0  0
 13 16  1  0  0  0  0
 13 36  1  0  0  0  0
 13 37  1  0  0  0  0
 14 38  1  0  0  0  0
 15 17  1  0  0  0  0
 16 39  1  0  0  0  0
 16 40  1  0  0  0  0
 16 41  1  0  0  0  0
M  END
> <PUBCHEM_COMPOUND_CID>
5367676

> <PUBCHEM_CONFORMER_RMSD>
1

> <PUBCHEM_CONFORMER_DIVERSEORDER>
1
54
10
188
27
207
178
184
129
71
110
137
288
155
179
279
52
47
280
127
58
162
63
26
289
167
6
12
254
190
232
250
79
275
53
189
69
94
281
251
160
70
158
142
140
138
64
39
123
92
25
291
74
285
97
157
34
194
107
171
293
43
21
284
91
89
148
180
267
133
269
13
253
18
104
220
227
235
14
276
247
15
105
199
9
218
169
198
139
294
239
246
56
182
283
202
41
217
8
55
230
282
228
248
187
85
19
153
147
109
172
2
121
262
195
292
83
173
131
213
81
159
225
203
78
112
249
72
181
166
273
290
134
146
222
28
231
204
156
4
16
37
244
143
286
214
183
229
177
274
144
263
150
11
51
277
136
31
45
114
100
151
216
186
113
208
36
265
175
245
3
165
257
32
163
20
118
84
271
161
87
210
236
278
49
103
126
98
154
170
60
62
125
30
66
135
68
145
185
191
243
209
260
119
238
174
67
196
24
102
115
176
40
270
99
35
82
5
128
261
76
252
17
50
212
192
23
42
226
149
73
57
272
206
130
117
259
29
152
219
65
86
77
242
268
88
93
132
197
75
223
164
48
141
234
46
241
61
120
168
33
215
7
240
193
255
111
211
106
44
256
122
22
266
59
101
237
205
108
38
264
96
95
80
224
90
201
124
116
258
233
200
221
287

> <PUBCHEM_MMFF94_PARTIAL_CHARGES>
13
1 -0.43
10 0.14
11 0.28
12 -0.29
13 0.14
14 -0.29
15 -0.1
17 0.83
2 -0.57
35 0.15
38 0.15
7 0.2
9 -0.2

> <PUBCHEM_EFFECTIVE_ROTOR_COUNT>
9

> <PUBCHEM_PHARMACOPHORE_FEATURES>
5
1 16 hydrophobe
1 2 acceptor
1 8 hydrophobe
3 3 4 6 hydrophobe
3 5 7 9 hydrophobe

> <PUBCHEM_HEAVY_ATOM_COUNT>
17

> <PUBCHEM_ATOM_DEF_STEREO_COUNT>
0

> <PUBCHEM_ATOM_UDEF_STEREO_COUNT>
0

> <PUBCHEM_BOND_DEF_STEREO_COUNT>
1

> <PUBCHEM_BOND_UDEF_STEREO_COUNT>
0

> <PUBCHEM_ISOTOPIC_ATOM_COUNT>
0

> <PUBCHEM_COMPONENT_COUNT>
1

> <PUBCHEM_CACTVS_TAUTO_COUNT>
1

> <PUBCHEM_CONFORMER_ID>
0051E77C00000001

> <PUBCHEM_MMFF94_ENERGY>
2.4086

> <PUBCHEM_FEATURE_SELFOVERLAP>
25.386

> <PUBCHEM_SHAPE_FINGERPRINT>
11315181 36 18343865507220739409
11724838 91 18261111899002324020
12091667 2 16805609135557092796
13631057 29 18411416211401329555
13740256 8 18411701006324605737
13911882 115 17917721158118869078
1420 363 18341055133982836420
14251732 16 18411136935980578856
14251752 14 9655575197911568396
14251764 18 17894915140434735398
14429380 30 18194120939923171167
15183329 4 10663820750395363716
15415430 10 18411983598425148199
15716309 27 18408045108613385738
1768 4 16988266686955395336
17780758 139 17989212529975898497
195137 175 11599998882753143642
21054139 6 18113336410251894578
21095123 145 17418091062082442598
22896161 15 18409730669193222132
23402539 116 17603589603578272565
23559900 14 18335414660433343825
23622692 118 18341891957269247629
328310 18 14490462055271338015
328311 84 17917153811115760590
4325135 7 18260550013235389022
445580 167 18187930629586972940
474229 33 18410294688129646806
59345605 10 18411419518494375351
7062679 117 18333733502695359515
7495541 125 18343582954165175888

> <PUBCHEM_SHAPE_MULTIPOLES>
338.11
21.51
2.37
0.79
36.24
0.27
0.1
-11.78
1.49
-4.9
-0.39
-0.84
-0.19
-0.37

> <PUBCHEM_SHAPE_SELFOVERLAP>
630.498

> <PUBCHEM_SHAPE_VOLUME>
210.5

> <PUBCHEM_COORDINATE_TYPE>
2
5
10

$$$$
