10103761
  -OEChem-02172602433D

 29 32  0     1  0  0  0  0  0999 V2000
    2.5802   -1.0190    0.9474 O   0  0  0  0  0  0  0  0  0  0  0  0
   -0.5913    1.9104    1.1730 O   0  0  0  0  0  0  0  0  0  0  0  0
    0.2919   -0.3216    0.3223 C   0  0  1  0  0  0  0  0  0  0  0  0
   -0.2477    1.1086    0.0404 C   0  0  1  0  0  0  0  0  0  0  0  0
   -0.7414   -0.8847   -0.6911 C   0  0  2  0  0  0  0  0  0  0  0  0
   -1.4044    0.5070   -0.7920 C   0  0  1  0  0  0  0  0  0  0  0  0
    1.7616   -0.3230   -0.0042 C   0  0  1  0  0  0  0  0  0  0  0  0
    0.8984    1.7841   -0.7322 C   0  0  0  0  0  0  0  0  0  0  0  0
    2.1864    1.0888   -0.2656 C   0  0  0  0  0  0  0  0  0  0  0  0
   -1.8155   -1.8127   -0.1315 C   0  0  0  0  0  0  0  0  0  0  0  0
   -2.7880    0.3726   -0.1543 C   0  0  0  0  0  0  0  0  0  0  0  0
    2.5885   -1.5142   -0.3957 C   0  0  0  0  0  0  0  0  0  0  0  0
   -2.7187   -0.8961    0.6836 C   0  0  0  0  0  0  0  0  0  0  0  0
    0.1116   -0.6495    1.3551 H   0  0  0  0  0  0  0  0  0  0  0  0
   -0.2935   -1.2441   -1.6245 H   0  0  0  0  0  0  0  0  0  0  0  0
   -1.4721    0.9119   -1.8086 H   0  0  0  0  0  0  0  0  0  0  0  0
    0.9412    2.8660   -0.5696 H   0  0  0  0  0  0  0  0  0  0  0  0
    0.7805    1.6202   -1.8108 H   0  0  0  0  0  0  0  0  0  0  0  0
    2.9751    1.1681   -1.0198 H   0  0  0  0  0  0  0  0  0  0  0  0
    2.5421    1.5524    0.6619 H   0  0  0  0  0  0  0  0  0  0  0  0
   -1.3934   -2.6209    0.4731 H   0  0  0  0  0  0  0  0  0  0  0  0
   -2.3849   -2.2632   -0.9530 H   0  0  0  0  0  0  0  0  0  0  0  0
   -3.5404    0.2431   -0.9419 H   0  0  0  0  0  0  0  0  0  0  0  0
   -3.0758    1.2487    0.4337 H   0  0  0  0  0  0  0  0  0  0  0  0
    2.0819   -2.4514   -0.5873 H   0  0  0  0  0  0  0  0  0  0  0  0
    3.4831   -1.3549   -0.9835 H   0  0  0  0  0  0  0  0  0  0  0  0
   -3.7057   -1.3334    0.8596 H   0  0  0  0  0  0  0  0  0  0  0  0
   -2.2679   -0.6840    1.6594 H   0  0  0  0  0  0  0  0  0  0  0  0
   -1.1216    1.3409    1.7546 H   0  0  0  0  0  0  0  0  0  0  0  0
  1  7  1  0  0  0  0
  1 12  1  0  0  0  0
  2  4  1  0  0  0  0
  2 29  1  0  0  0  0
  3  4  1  0  0  0  0
  3  5  1  0  0  0  0
  3  7  1  0  0  0  0
  3 14  1  0  0  0  0
  4  6  1  0  0  0  0
  4  8  1  0  0  0  0
  5  6  1  0  0  0  0
  5 10  1  0  0  0  0
  5 15  1  0  0  0  0
  6 11  1  0  0  0  0
  6 16  1  0  0  0  0
  7  9  1  0  0  0  0
  7 12  1  0  0  0  0
  8  9  1  0  0  0  0
  8 17  1  0  0  0  0
  8 18  1  0  0  0  0
  9 19  1  0  0  0  0
  9 20  1  0  0  0  0
 10 13  1  0  0  0  0
 10 21  1  0  0  0  0
 10 22  1  0  0  0  0
 11 13  1  0  0  0  0
 11 23  1  0  0  0  0
 11 24  1  0  0  0  0
 12 25  1  0  0  0  0
 12 26  1  0  0  0  0
 13 27  1  0  0  0  0
 13 28  1  0  0  0  0
M  END
> <PUBCHEM_COMPOUND_CID>
10103761

> <PUBCHEM_CONFORMER_RMSD>
0.4

> <PUBCHEM_CONFORMER_DIVERSEORDER>
1
2

> <PUBCHEM_MMFF94_PARTIAL_CHARGES>
10
1 -0.3
12 -0.05
2 -0.66
25 0.1
26 0.1
29 0.4
3 0.08
4 0.26
7 -0.02
9 0.09

> <PUBCHEM_EFFECTIVE_ROTOR_COUNT>
1.4

> <PUBCHEM_PHARMACOPHORE_FEATURES>
5
1 1 acceptor
1 2 acceptor
1 2 donor
7 3 4 5 6 10 11 13 rings
7 3 4 5 6 7 8 9 rings

> <PUBCHEM_HEAVY_ATOM_COUNT>
13

> <PUBCHEM_ATOM_DEF_STEREO_COUNT>
5

> <PUBCHEM_ATOM_UDEF_STEREO_COUNT>
0

> <PUBCHEM_BOND_DEF_STEREO_COUNT>
0

> <PUBCHEM_BOND_UDEF_STEREO_COUNT>
0

> <PUBCHEM_ISOTOPIC_ATOM_COUNT>
0

> <PUBCHEM_COMPONENT_COUNT>
1

> <PUBCHEM_CACTVS_TAUTO_COUNT>
1

> <PUBCHEM_CONFORMER_ID>
009A2BD100000001

> <PUBCHEM_MMFF94_ENERGY>
33.3476

> <PUBCHEM_FEATURE_SELFOVERLAP>
25.663

> <PUBCHEM_SHAPE_FINGERPRINT>
10130415 120 18411698768688608865
11769659 78 18260544545710664843
12382932 28 18271517701783567962
12423570 1 16049860105920511140
12524768 44 18412822477961858870
13024252 1 14925086850545704636
13571099 22 18411415103231065559
14128692 85 18334579070160619374
15001771 113 18410865338721825608
15076042 46 18201164243246778145
16945 1 18261948540438859167
17844478 74 17822581602573108889
17990270 104 18336828692436681822
18511873 20 18409166572098521459
20201158 50 18408036312372969190
20645477 70 18263358265171397871
21501502 16 18336827618969015055
23552423 10 18188211029898589231
23559900 14 18121490251619761506
2748010 2 18335976527869675798
369184 2 18333726918610740999
5084963 1 18040721329015398812
53812654 25 18129931373197842127
568465 68 17615145694097994704
63268167 104 18337956800072525313
7364860 26 18341615983533973100

> <PUBCHEM_SHAPE_MULTIPOLES>
255.8
3.95
1.94
0.93
0.16
0.17
-0.07
-1.36
-0.24
-0.36
-0.03
0.04
0.11
-0.14

> <PUBCHEM_SHAPE_SELFOVERLAP>
558.475

> <PUBCHEM_SHAPE_VOLUME>
143.5

> <PUBCHEM_COORDINATE_TYPE>
2
5
10

$$$$
