128834
  -OEChem-02172602353D

 33 35  0     0  0  0  0  0  0999 V2000
    0.2926    1.7421    0.1571 O   0  0  0  0  0  0  0  0  0  0  0  0
   -4.4567    0.8597   -0.1034 O   0  0  0  0  0  0  0  0  0  0  0  0
    2.5467    2.0817    0.2744 O   0  0  0  0  0  0  0  0  0  0  0  0
    3.2328   -0.6617    0.2885 C   0  0  0  0  0  0  0  0  0  0  0  0
    1.8166   -0.1771    0.2189 C   0  0  0  0  0  0  0  0  0  0  0  0
    3.8680   -0.1634    1.6022 C   0  0  0  0  0  0  0  0  0  0  0  0
    3.2342   -2.2034    0.2962 C   0  0  0  0  0  0  0  0  0  0  0  0
    0.7742   -1.0161    0.1564 C   0  0  0  0  0  0  0  0  0  0  0  0
   -0.5915   -0.5202    0.0890 C   0  0  0  0  0  0  0  0  0  0  0  0
    4.1034   -0.1903   -0.8703 C   0  0  0  0  0  0  0  0  0  0  0  0
   -0.8049    0.8558    0.0910 C   0  0  0  0  0  0  0  0  0  0  0  0
    1.6085    1.2933    0.2208 C   0  0  0  0  0  0  0  0  0  0  0  0
   -1.6870   -1.3957    0.0221 C   0  0  0  0  0  0  0  0  0  0  0  0
   -2.9864   -0.8549   -0.0417 C   0  0  0  0  0  0  0  0  0  0  0  0
   -3.1362    0.5287   -0.0362 C   0  0  0  0  0  0  0  0  0  0  0  0
   -2.0774    1.4308    0.0291 C   0  0  0  0  0  0  0  0  0  0  0  0
   -4.3018   -1.3847   -0.1173 C   0  0  0  0  0  0  0  0  0  0  0  0
    3.7185    0.0809   -2.1245 C   0  0  0  0  0  0  0  0  0  0  0  0
   -5.1537   -0.3052   -0.1522 C   0  0  0  0  0  0  0  0  0  0  0  0
    4.1052    0.9051    1.6003 H   0  0  0  0  0  0  0  0  0  0  0  0
    4.8154   -0.6826    1.7974 H   0  0  0  0  0  0  0  0  0  0  0  0
    3.2163   -0.3605    2.4625 H   0  0  0  0  0  0  0  0  0  0  0  0
    4.2653   -2.5785    0.3593 H   0  0  0  0  0  0  0  0  0  0  0  0
    2.8210   -2.6367   -0.6236 H   0  0  0  0  0  0  0  0  0  0  0  0
    2.7162   -2.6234    1.1674 H   0  0  0  0  0  0  0  0  0  0  0  0
    0.8541   -2.0955    0.1492 H   0  0  0  0  0  0  0  0  0  0  0  0
    5.1722   -0.1229   -0.6684 H   0  0  0  0  0  0  0  0  0  0  0  0
   -1.5456   -2.4733    0.0189 H   0  0  0  0  0  0  0  0  0  0  0  0
   -2.2334    2.5025    0.0311 H   0  0  0  0  0  0  0  0  0  0  0  0
   -4.5922   -2.4254   -0.1432 H   0  0  0  0  0  0  0  0  0  0  0  0
    4.4500    0.3818   -2.8670 H   0  0  0  0  0  0  0  0  0  0  0  0
    2.6848    0.0028   -2.4407 H   0  0  0  0  0  0  0  0  0  0  0  0
   -6.2276   -0.2040   -0.2086 H   0  0  0  0  0  0  0  0  0  0  0  0
  1 11  1  0  0  0  0
  1 12  1  0  0  0  0
  2 15  1  0  0  0  0
  2 19  1  0  0  0  0
  3 12  2  0  0  0  0
  4  5  1  0  0  0  0
  4  6  1  0  0  0  0
  4  7  1  0  0  0  0
  4 10  1  0  0  0  0
  5  8  2  0  0  0  0
  5 12  1  0  0  0  0
  6 20  1  0  0  0  0
  6 21  1  0  0  0  0
  6 22  1  0  0  0  0
  7 23  1  0  0  0  0
  7 24  1  0  0  0  0
  7 25  1  0  0  0  0
  8  9  1  0  0  0  0
  8 26  1  0  0  0  0
  9 11  2  0  0  0  0
  9 13  1  0  0  0  0
 10 18  2  0  0  0  0
 10 27  1  0  0  0  0
 11 16  1  0  0  0  0
 13 14  2  0  0  0  0
 13 28  1  0  0  0  0
 14 15  1  0  0  0  0
 14 17  1  0  0  0  0
 15 16  2  0  0  0  0
 16 29  1  0  0  0  0
 17 19  2  0  0  0  0
 17 30  1  0  0  0  0
 18 31  1  0  0  0  0
 18 32  1  0  0  0  0
 19 33  1  0  0  0  0
M  END
> <PUBCHEM_COMPOUND_CID>
128834

> <PUBCHEM_CONFORMER_RMSD>
0.6

> <PUBCHEM_CONFORMER_DIVERSEORDER>
1
6
2
5
4
3

> <PUBCHEM_MMFF94_PARTIAL_CHARGES>
24
1 -0.23
10 -0.29
11 0.08
12 0.71
13 -0.15
15 0.14
16 -0.15
17 -0.15
18 -0.3
19 -0.01
2 -0.28
26 0.15
27 0.15
28 0.15
29 0.15
3 -0.57
30 0.15
31 0.15
32 0.15
33 0.15
4 0.28
5 -0.12
8 -0.18
9 0.03

> <PUBCHEM_EFFECTIVE_ROTOR_COUNT>
2

> <PUBCHEM_PHARMACOPHORE_FEATURES>
7
1 18 hydrophobe
1 2 acceptor
1 3 acceptor
3 4 6 7 hydrophobe
5 2 14 15 17 19 rings
6 1 5 8 9 11 12 rings
6 9 11 13 14 15 16 rings

> <PUBCHEM_HEAVY_ATOM_COUNT>
19

> <PUBCHEM_ATOM_DEF_STEREO_COUNT>
0

> <PUBCHEM_ATOM_UDEF_STEREO_COUNT>
0

> <PUBCHEM_BOND_DEF_STEREO_COUNT>
0

> <PUBCHEM_BOND_UDEF_STEREO_COUNT>
0

> <PUBCHEM_ISOTOPIC_ATOM_COUNT>
0

> <PUBCHEM_COMPONENT_COUNT>
1

> <PUBCHEM_CACTVS_TAUTO_COUNT>
1

> <PUBCHEM_CONFORMER_ID>
0001F74200000001

> <PUBCHEM_MMFF94_ENERGY>
56.2293

> <PUBCHEM_FEATURE_SELFOVERLAP>
35.652

> <PUBCHEM_SHAPE_FINGERPRINT>
11132069 177 18343294873291016755
11543360 7 16298390196858680339
12032990 46 18412826880440298779
12236239 1 17894631440053223966
12616999 72 18259992565462472214
12670546 56 13830132741633072731
13140716 1 18266730475348267066
13221675 6 18409163294748584147
13533116 47 14117525311383191839
13675066 3 17489583467898111585
13760787 5 17822016384581549697
13862211 1 18411692202053313415
14115302 16 17894918433852088778
14252887 29 17560803225696684122
14866123 147 16975903450708905610
15196674 1 18411134771042794009
15536298 74 18271241719985723649
15848700 24 18343299271179337244
16752209 62 18339927021629837673
16945 1 18411420583546129056
17804303 29 18341896303206581601
18186145 218 18408317809114387421
200 152 18060692897552195879
20281475 54 18336829693068830384
20559304 39 18408318870240308938
20645477 70 18202285843891260356
21267235 1 18411425020564097203
21501925 9 18412252948123684968
221490 88 18263931101811876427
2255824 54 18261393407632027484
23175994 123 17131836469365073305
23402539 116 18272076194025049207
23463225 33 18410570678079406795
23559900 14 18342173341471564938
239999 70 18131635608232197596
2748010 2 18049727609316015002
3004659 81 18114181883159282282
3060560 45 17988928864355377086
3286 77 18334005082236322676
335352 9 18339077078273411541
474 4 16154570820719007668
4921388 177 15792025510234316099
4990 188 18201446873590667332
5104073 3 18411699932962298513
537710 114 18334861601767785084
542803 24 17240484697973562207
7164475 11 18042685001396587452
7364860 26 18199748210131578200
9709674 26 18267021841835133123
9981440 41 17399789896648688545

> <PUBCHEM_SHAPE_MULTIPOLES>
373.4
9.63
1.8
1.06
5.23
0.1
0.32
-1.78
1.07
-0.35
-0.18
-1.67
0.01
-0.2

> <PUBCHEM_SHAPE_SELFOVERLAP>
828.05

> <PUBCHEM_SHAPE_VOLUME>
201.4

> <PUBCHEM_COORDINATE_TYPE>
2
5
10

$$$$
