90075
  -OEChem-02172602253D

 40 42  0     1  0  0  0  0  0999 V2000
    2.2633    2.9792   -0.6807 O   0  0  0  0  0  0  0  0  0  0  0  0
    4.3765    1.6078    0.4893 O   0  0  0  0  0  0  0  0  0  0  0  0
   -5.2134    1.7133    0.6575 O   0  0  0  0  0  0  0  0  0  0  0  0
    0.7315   -3.2229   -0.2526 N   0  0  1  0  0  0  0  0  0  0  0  0
   -0.4884   -1.1116   -0.6848 C   0  0  2  0  0  0  0  0  0  0  0  0
   -0.5470   -2.5272   -0.0614 C   0  0  0  0  0  0  0  0  0  0  0  0
    0.8013   -0.3717   -0.3513 C   0  0  0  0  0  0  0  0  0  0  0  0
    1.7838   -2.5439    0.5202 C   0  0  0  0  0  0  0  0  0  0  0  0
    1.8922   -1.0720    0.1977 C   0  0  0  0  0  0  0  0  0  0  0  0
   -1.7584   -0.3521   -0.3244 C   0  0  0  0  0  0  0  0  0  0  0  0
    0.9553    0.9899   -0.6619 C   0  0  0  0  0  0  0  0  0  0  0  0
    3.0825   -0.3895    0.4904 C   0  0  0  0  0  0  0  0  0  0  0  0
    0.6248   -4.6239    0.1545 C   0  0  0  0  0  0  0  0  0  0  0  0
    2.1485    1.6556   -0.3794 C   0  0  0  0  0  0  0  0  0  0  0  0
    3.2087    0.9682    0.2030 C   0  0  0  0  0  0  0  0  0  0  0  0
   -2.6398    0.0354   -1.3284 C   0  0  0  0  0  0  0  0  0  0  0  0
   -2.0278   -0.0522    1.0071 C   0  0  0  0  0  0  0  0  0  0  0  0
   -3.8030    0.7306   -0.9977 C   0  0  0  0  0  0  0  0  0  0  0  0
   -3.1911    0.6428    1.3378 C   0  0  0  0  0  0  0  0  0  0  0  0
   -4.0786    1.0344    0.3354 C   0  0  0  0  0  0  0  0  0  0  0  0
    1.8791    3.9098    0.3296 C   0  0  0  0  0  0  0  0  0  0  0  0
   -0.4613   -1.2495   -1.7765 H   0  0  0  0  0  0  0  0  0  0  0  0
   -0.7953   -2.4958    1.0082 H   0  0  0  0  0  0  0  0  0  0  0  0
   -1.3571   -3.0838   -0.5523 H   0  0  0  0  0  0  0  0  0  0  0  0
    2.7448   -3.0207    0.2887 H   0  0  0  0  0  0  0  0  0  0  0  0
    1.6083   -2.6447    1.5998 H   0  0  0  0  0  0  0  0  0  0  0  0
    0.1430    1.5413   -1.1296 H   0  0  0  0  0  0  0  0  0  0  0  0
    3.9175   -0.9231    0.9390 H   0  0  0  0  0  0  0  0  0  0  0  0
    1.5742   -5.1452   -0.0104 H   0  0  0  0  0  0  0  0  0  0  0  0
   -0.1271   -5.1429   -0.4503 H   0  0  0  0  0  0  0  0  0  0  0  0
    0.3512   -4.7304    1.2105 H   0  0  0  0  0  0  0  0  0  0  0  0
   -2.4381   -0.1941   -2.3710 H   0  0  0  0  0  0  0  0  0  0  0  0
   -1.3446   -0.3406    1.8010 H   0  0  0  0  0  0  0  0  0  0  0  0
   -4.4904    1.0331   -1.7830 H   0  0  0  0  0  0  0  0  0  0  0  0
   -3.3934    0.8752    2.3800 H   0  0  0  0  0  0  0  0  0  0  0  0
    4.3072    2.5293    0.1861 H   0  0  0  0  0  0  0  0  0  0  0  0
    2.4692    3.7621    1.2396 H   0  0  0  0  0  0  0  0  0  0  0  0
    0.8124    3.8095    0.5542 H   0  0  0  0  0  0  0  0  0  0  0  0
    2.0638    4.9195   -0.0469 H   0  0  0  0  0  0  0  0  0  0  0  0
   -5.2433    1.8371    1.6218 H   0  0  0  0  0  0  0  0  0  0  0  0
  1 14  1  0  0  0  0
  1 21  1  0  0  0  0
  2 15  1  0  0  0  0
  2 36  1  0  0  0  0
  3 20  1  0  0  0  0
  3 40  1  0  0  0  0
  4  6  1  0  0  0  0
  4  8  1  0  0  0  0
  4 13  1  0  0  0  0
  5  6  1  0  0  0  0
  5  7  1  0  0  0  0
  5 10  1  0  0  0  0
  5 22  1  0  0  0  0
  6 23  1  0  0  0  0
  6 24  1  0  0  0  0
  7  9  1  0  0  0  0
  7 11  2  0  0  0  0
  8  9  1  0  0  0  0
  8 25  1  0  0  0  0
  8 26  1  0  0  0  0
  9 12  2  0  0  0  0
 10 16  2  0  0  0  0
 10 17  1  0  0  0  0
 11 14  1  0  0  0  0
 11 27  1  0  0  0  0
 12 15  1  0  0  0  0
 12 28  1  0  0  0  0
 13 29  1  0  0  0  0
 13 30  1  0  0  0  0
 13 31  1  0  0  0  0
 14 15  2  0  0  0  0
 16 18  1  0  0  0  0
 16 32  1  0  0  0  0
 17 19  2  0  0  0  0
 17 33  1  0  0  0  0
 18 20  2  0  0  0  0
 18 34  1  0  0  0  0
 19 20  1  0  0  0  0
 19 35  1  0  0  0  0
 21 37  1  0  0  0  0
 21 38  1  0  0  0  0
 21 39  1  0  0  0  0
M  END
> <PUBCHEM_COMPOUND_CID>
90075

> <PUBCHEM_CONFORMER_RMSD>
0.6

> <PUBCHEM_CONFORMER_DIVERSEORDER>
1
4
2
5
3

> <PUBCHEM_MMFF94_PARTIAL_CHARGES>
29
1 -0.36
10 -0.14
11 -0.15
12 -0.15
13 0.27
14 0.08
15 0.08
16 -0.15
17 -0.15
18 -0.15
19 -0.15
2 -0.53
20 0.08
21 0.28
27 0.15
28 0.15
3 -0.53
32 0.15
33 0.15
34 0.15
35 0.15
36 0.45
4 -0.81
40 0.45
5 0.29
6 0.27
7 -0.14
8 0.41
9 -0.14

> <PUBCHEM_EFFECTIVE_ROTOR_COUNT>
2.8

> <PUBCHEM_PHARMACOPHORE_FEATURES>
7
1 1 acceptor
1 2 donor
1 3 donor
1 4 cation
6 10 16 17 18 19 20 rings
6 4 5 6 7 8 9 rings
6 7 9 11 12 14 15 rings

> <PUBCHEM_HEAVY_ATOM_COUNT>
21

> <PUBCHEM_ATOM_DEF_STEREO_COUNT>
1

> <PUBCHEM_ATOM_UDEF_STEREO_COUNT>
0

> <PUBCHEM_BOND_DEF_STEREO_COUNT>
0

> <PUBCHEM_BOND_UDEF_STEREO_COUNT>
0

> <PUBCHEM_ISOTOPIC_ATOM_COUNT>
0

> <PUBCHEM_COMPONENT_COUNT>
1

> <PUBCHEM_CACTVS_TAUTO_COUNT>
6

> <PUBCHEM_CONFORMER_ID>
00015FDB00000001

> <PUBCHEM_MMFF94_ENERGY>
70.2348

> <PUBCHEM_FEATURE_SELFOVERLAP>
35.542

> <PUBCHEM_SHAPE_FINGERPRINT>
10411042 1 17545882629438511583
1100329 8 18339076116253893896
11640471 11 17846218817621304849
11725454 13 16880717879078923999
12173636 292 18123470746189635365
12403259 327 16877662365897725129
12553582 1 17906446628222437838
12633257 1 17748824111723828169
12788726 201 17909812572701794678
13134695 92 17975978665847460559
13140716 1 18336546113526463697
13583140 156 17241310495256102201
138480 1 18050004389814486094
14787075 74 17914058852996957211
14790565 3 18336839632278158332
14955137 171 18337119960260873106
15309172 13 18408321111611831279
16945 1 18337107856663042942
1813 80 17481434776571696559
18186145 218 18413392029163774781
18219364 16 18261387879708502349
19049666 15 17461433621022308087
19765921 60 18130788992599751763
20157964 124 18337951178715007717
204376 136 18409729590291501430
20510252 161 17329142984702806058
20715895 44 17264973893227677865
20739085 24 18262802852779579112
21041028 32 17688590463741192591
21524375 3 18272370927185923133
21639500 275 18337097995750116087
21731228 192 18334859467005826987
22182937 141 18051695739409032920
2255824 54 18340208488027527151
23558518 356 17756985984632604264
23559900 14 18265900142849573811
23845131 108 18335420214290047539
283562 15 17110719519640868256
3091708 16 9334554098747752226
31174 14 18117566132757541223
350125 39 18120659286114295674
3886686 26 17763140982195576128
474 4 18412824672943198673
49207404 50 18188508950843257147
633830 44 18273216382691954511
6443956 14 17975416810952041279
7364860 26 18338518512896270583
81228 2 17181105842792744094
8272917 22 18339646612184882991
84936 182 18201429277210174817
9981440 41 16911976097029562304

> <PUBCHEM_SHAPE_MULTIPOLES>
409.58
7.12
4.47
1.03
6.12
2.6
0
-5.7
1.25
-3.92
0.24
0.76
-0.16
-0.46

> <PUBCHEM_SHAPE_SELFOVERLAP>
886.584

> <PUBCHEM_SHAPE_VOLUME>
225.2

> <PUBCHEM_COORDINATE_TYPE>
2
5
10

$$$$
