115049
  -OEChem-02172602423D

 34 35  0     1  0  0  0  0  0999 V2000
    2.2976   -2.1792   -0.0458 O   0  0  0  0  0  0  0  0  0  0  0  0
   -4.8533   -1.1466   -0.3854 O   0  0  0  0  0  0  0  0  0  0  0  0
    3.2793    0.0123   -0.4846 C   0  0  2  0  0  0  0  0  0  0  0  0
    2.6105    1.4040   -0.4012 C   0  0  0  0  0  0  0  0  0  0  0  0
    1.1649    1.1012   -0.1644 C   0  0  0  0  0  0  0  0  0  0  0  0
    0.9131   -0.2568   -0.0169 C   0  0  0  0  0  0  0  0  0  0  0  0
    2.1704   -0.9733   -0.1617 C   0  0  0  0  0  0  0  0  0  0  0  0
   -0.3488   -0.7674    0.2262 C   0  0  0  0  0  0  0  0  0  0  0  0
   -1.4007    0.1436    0.3210 C   0  0  0  0  0  0  0  0  0  0  0  0
    0.1213    2.0076   -0.0682 C   0  0  0  0  0  0  0  0  0  0  0  0
   -1.1679    1.5216    0.1746 C   0  0  0  0  0  0  0  0  0  0  0  0
    4.4453   -0.1356    0.4783 C   0  0  0  0  0  0  0  0  0  0  0  0
   -2.7910   -0.3478    0.5790 C   0  0  0  0  0  0  0  0  0  0  0  0
   -0.5875   -2.2307    0.3788 C   0  0  0  0  0  0  0  0  0  0  0  0
   -2.2936    2.4999    0.2779 C   0  0  0  0  0  0  0  0  0  0  0  0
   -3.5596   -0.6527   -0.7077 C   0  0  0  0  0  0  0  0  0  0  0  0
    3.6115   -0.1750   -1.5127 H   0  0  0  0  0  0  0  0  0  0  0  0
    2.7429    1.9493   -1.3416 H   0  0  0  0  0  0  0  0  0  0  0  0
    3.0130    2.0069    0.4198 H   0  0  0  0  0  0  0  0  0  0  0  0
    0.3121    3.0708   -0.1778 H   0  0  0  0  0  0  0  0  0  0  0  0
    4.8958   -1.1303    0.3923 H   0  0  0  0  0  0  0  0  0  0  0  0
    5.2205    0.6080    0.2678 H   0  0  0  0  0  0  0  0  0  0  0  0
    4.1230   -0.0120    1.5182 H   0  0  0  0  0  0  0  0  0  0  0  0
   -3.3624    0.3778    1.1713 H   0  0  0  0  0  0  0  0  0  0  0  0
   -2.7990   -1.2189    1.2457 H   0  0  0  0  0  0  0  0  0  0  0  0
   -0.3287   -2.5501    1.3933 H   0  0  0  0  0  0  0  0  0  0  0  0
   -1.6112   -2.5469    0.1693 H   0  0  0  0  0  0  0  0  0  0  0  0
    0.0112   -2.8027   -0.3371 H   0  0  0  0  0  0  0  0  0  0  0  0
   -2.6901    2.5265    1.2980 H   0  0  0  0  0  0  0  0  0  0  0  0
   -1.9608    3.5168    0.0401 H   0  0  0  0  0  0  0  0  0  0  0  0
   -3.0959    2.2660   -0.4271 H   0  0  0  0  0  0  0  0  0  0  0  0
   -3.0514   -1.4149   -1.3066 H   0  0  0  0  0  0  0  0  0  0  0  0
   -3.6767    0.2341   -1.3380 H   0  0  0  0  0  0  0  0  0  0  0  0
   -5.3124   -0.4552    0.1212 H   0  0  0  0  0  0  0  0  0  0  0  0
  1  7  2  0  0  0  0
  2 16  1  0  0  0  0
  2 34  1  0  0  0  0
  3  4  1  0  0  0  0
  3  7  1  0  0  0  0
  3 12  1  0  0  0  0
  3 17  1  0  0  0  0
  4  5  1  0  0  0  0
  4 18  1  0  0  0  0
  4 19  1  0  0  0  0
  5  6  2  0  0  0  0
  5 10  1  0  0  0  0
  6  7  1  0  0  0  0
  6  8  1  0  0  0  0
  8  9  2  0  0  0  0
  8 14  1  0  0  0  0
  9 11  1  0  0  0  0
  9 13  1  0  0  0  0
 10 11  2  0  0  0  0
 10 20  1  0  0  0  0
 11 15  1  0  0  0  0
 12 21  1  0  0  0  0
 12 22  1  0  0  0  0
 12 23  1  0  0  0  0
 13 16  1  0  0  0  0
 13 24  1  0  0  0  0
 13 25  1  0  0  0  0
 14 26  1  0  0  0  0
 14 27  1  0  0  0  0
 14 28  1  0  0  0  0
 15 29  1  0  0  0  0
 15 30  1  0  0  0  0
 15 31  1  0  0  0  0
 16 32  1  0  0  0  0
 16 33  1  0  0  0  0
M  END
> <PUBCHEM_COMPOUND_CID>
115049

> <PUBCHEM_CONFORMER_RMSD>
0.6

> <PUBCHEM_CONFORMER_DIVERSEORDER>
1
2

> <PUBCHEM_MMFF94_PARTIAL_CHARGES>
17
1 -0.57
10 -0.15
11 -0.14
13 0.14
14 0.14
15 0.14
16 0.28
2 -0.68
20 0.15
3 0.06
34 0.4
4 0.14
5 -0.14
6 0.09
7 0.42
8 -0.14
9 -0.14

> <PUBCHEM_EFFECTIVE_ROTOR_COUNT>
2.4

> <PUBCHEM_PHARMACOPHORE_FEATURES>
5
1 1 acceptor
1 2 acceptor
1 2 donor
5 3 4 5 6 7 rings
6 5 6 8 9 10 11 rings

> <PUBCHEM_HEAVY_ATOM_COUNT>
16

> <PUBCHEM_ATOM_DEF_STEREO_COUNT>
1

> <PUBCHEM_ATOM_UDEF_STEREO_COUNT>
0

> <PUBCHEM_BOND_DEF_STEREO_COUNT>
0

> <PUBCHEM_BOND_UDEF_STEREO_COUNT>
0

> <PUBCHEM_ISOTOPIC_ATOM_COUNT>
0

> <PUBCHEM_COMPONENT_COUNT>
1

> <PUBCHEM_CACTVS_TAUTO_COUNT>
2

> <PUBCHEM_CONFORMER_ID>
0001C16900000001

> <PUBCHEM_MMFF94_ENERGY>
45.3633

> <PUBCHEM_FEATURE_SELFOVERLAP>
25.451

> <PUBCHEM_SHAPE_FINGERPRINT>
10967382 1 18338239382945017920
11132069 177 18339645520904688616
11206711 2 18335991891131542261
11471102 20 18336546126421973661
11578080 2 17488157406097690097
11680986 33 18050568739805887921
11806522 49 18411134753266767399
13140716 1 18122068868711149378
13380535 76 18409451414256200346
13583140 156 14548461254533409531
13690532 89 18335699468098363075
13862211 1 18410288142204082690
14115302 16 18041286581145312942
14178342 30 18195801878131201736
14251717 144 18411136965254338511
14576447 43 18128245882540431423
14614273 12 18042120951810303477
14911166 2 18335704987141881647
15196674 1 18338518534850791112
15442244 35 18193559956689458530
15536298 74 18270402659891652950
16945 1 18337123353073585496
193761 8 17977105660764760883
200 152 18341888606398230101
20201158 50 18335423490785390306
20510252 161 18272091565359931264
21029758 11 18342173401295431489
21267235 1 18410865372976361310
21501502 16 18337958865835827952
21501925 9 18408881837183688872
2334 1 18337399231602407968
23388829 49 18411700984643826661
23402539 116 18412255142756975703
23402655 69 18411416202916922653
23463225 33 18334862667125539152
23557571 272 17988929942122752576
23559900 14 18055069862123462150
2748010 2 18193286191141945524
2871803 45 18410291410826786159
34934 24 18194960975031891660
43471831 8 18262518074625163906
5104073 3 18339360752252123456
57005193 9 18336258020300925762
69090 78 18343581875664089246
7832392 63 18122911919104351976
8809292 202 18115593784474116242
9709674 26 18411427180705956182

> <PUBCHEM_SHAPE_MULTIPOLES>
317.53
6.72
2.37
0.74
1
0.38
0.01
-1.65
0.58
0.69
-0.12
0.09
-0.02
-0.37

> <PUBCHEM_SHAPE_SELFOVERLAP>
677.281

> <PUBCHEM_SHAPE_VOLUME>
181.5

> <PUBCHEM_COORDINATE_TYPE>
2
5
10

$$$$
