6324921
  -OEChem-02172602273D

 72 76  0     1  0  0  0  0  0999 V2000
   -4.6370    0.1600   -0.2272 O   0  0  0  0  0  0  0  0  0  0  0  0
   -3.3735    1.6223   -1.5620 O   0  0  0  0  0  0  0  0  0  0  0  0
   -2.0122   -2.3807   -0.1581 O   0  0  0  0  0  0  0  0  0  0  0  0
   -3.9263    2.6476    1.2694 O   0  0  0  0  0  0  0  0  0  0  0  0
   -6.0421    3.1292   -1.6658 O   0  0  0  0  0  0  0  0  0  0  0  0
   -5.7828   -2.0815   -1.7582 O   0  0  0  0  0  0  0  0  0  0  0  0
   -1.8276   -0.0624    0.0287 O   0  0  0  0  0  0  0  0  0  0  0  0
   -4.8706   -4.6078   -0.6899 O   0  0  0  0  0  0  0  0  0  0  0  0
   -3.3397    5.2791    0.7127 O   0  0  0  0  0  0  0  0  0  0  0  0
   -1.4901   -4.6834   -1.6126 O   0  0  0  0  0  0  0  0  0  0  0  0
    2.9224   -0.0126    0.1873 O   0  0  0  0  0  0  0  0  0  0  0  0
    0.3166   -0.1392    4.2724 O   0  0  0  0  0  0  0  0  0  0  0  0
    2.9401   -0.1106    4.2603 O   0  0  0  0  0  0  0  0  0  0  0  0
    6.4136    1.3060   -3.1703 O   0  0  0  0  0  0  0  0  0  0  0  0
    8.7448    0.0862   -2.2763 O   0  0  0  0  0  0  0  0  0  0  0  0
   -3.9126   -0.9721   -0.7076 C   0  0  2  0  0  0  0  0  0  0  0  0
   -4.2550    3.1949   -0.0104 C   0  0  2  0  0  0  0  0  0  0  0  0
   -5.4058    2.4046   -0.6191 C   0  0  2  0  0  0  0  0  0  0  0  0
   -4.8261   -2.1981   -0.7038 C   0  0  2  0  0  0  0  0  0  0  0  0
   -4.6968    1.1897   -1.2074 C   0  0  2  0  0  0  0  0  0  0  0  0
   -4.0288   -3.4830   -0.9288 C   0  0  1  0  0  0  0  0  0  0  0  0
   -2.6974   -1.1816    0.1957 C   0  0  1  0  0  0  0  0  0  0  0  0
   -2.8225   -3.5451    0.0111 C   0  0  1  0  0  0  0  0  0  0  0  0
   -3.1153    2.9121   -0.9790 C   0  0  0  0  0  0  0  0  0  0  0  0
   -4.5118    4.6808    0.1864 C   0  0  0  0  0  0  0  0  0  0  0  0
   -1.9463   -4.7608   -0.2744 C   0  0  0  0  0  0  0  0  0  0  0  0
   -0.6751   -0.0671    0.7657 C   0  0  0  0  0  0  0  0  0  0  0  0
    0.5623   -0.0380    0.1221 C   0  0  0  0  0  0  0  0  0  0  0  0
   -0.7392   -0.0997    2.1595 C   0  0  0  0  0  0  0  0  0  0  0  0
    1.7362   -0.0415    0.8757 C   0  0  0  0  0  0  0  0  0  0  0  0
    0.4334   -0.1037    2.9159 C   0  0  0  0  0  0  0  0  0  0  0  0
    1.6703   -0.0744    2.2677 C   0  0  0  0  0  0  0  0  0  0  0  0
    2.9235   -0.0793    3.0376 C   0  0  0  0  0  0  0  0  0  0  0  0
    4.1058   -0.0085    0.9101 C   0  0  0  0  0  0  0  0  0  0  0  0
    4.1728   -0.0449    2.2505 C   0  0  0  0  0  0  0  0  0  0  0  0
    5.3210    0.0176    0.0715 C   0  0  0  0  0  0  0  0  0  0  0  0
    5.2991    0.6559   -1.1685 C   0  0  0  0  0  0  0  0  0  0  0  0
    6.4908   -0.5959    0.5195 C   0  0  0  0  0  0  0  0  0  0  0  0
    6.4471    0.6809   -1.9606 C   0  0  0  0  0  0  0  0  0  0  0  0
    7.6387   -0.5711   -0.2726 C   0  0  0  0  0  0  0  0  0  0  0  0
    7.6169    0.0674   -1.5126 C   0  0  0  0  0  0  0  0  0  0  0  0
    5.1794    1.9086   -3.5548 C   0  0  0  0  0  0  0  0  0  0  0  0
   -3.5638   -0.8121   -1.7383 H   0  0  0  0  0  0  0  0  0  0  0  0
   -6.1606    2.1261    0.1245 H   0  0  0  0  0  0  0  0  0  0  0  0
   -5.4018   -2.2500    0.2278 H   0  0  0  0  0  0  0  0  0  0  0  0
   -5.2007    0.8164   -2.1068 H   0  0  0  0  0  0  0  0  0  0  0  0
   -3.7143   -3.5291   -1.9781 H   0  0  0  0  0  0  0  0  0  0  0  0
   -3.0273   -1.2325    1.2417 H   0  0  0  0  0  0  0  0  0  0  0  0
   -3.1493   -3.6091    1.0576 H   0  0  0  0  0  0  0  0  0  0  0  0
   -2.1326    2.8820   -0.4991 H   0  0  0  0  0  0  0  0  0  0  0  0
   -3.0868    3.6312   -1.8046 H   0  0  0  0  0  0  0  0  0  0  0  0
   -5.3220    4.8407    0.9058 H   0  0  0  0  0  0  0  0  0  0  0  0
   -4.7639    5.1837   -0.7525 H   0  0  0  0  0  0  0  0  0  0  0  0
   -2.4945   -5.6972   -0.1345 H   0  0  0  0  0  0  0  0  0  0  0  0
   -1.0677   -4.7580    0.3791 H   0  0  0  0  0  0  0  0  0  0  0  0
   -3.1449    3.1200    1.6043 H   0  0  0  0  0  0  0  0  0  0  0  0
   -6.7375    2.5583   -2.0348 H   0  0  0  0  0  0  0  0  0  0  0  0
   -5.3001   -2.0064   -2.5989 H   0  0  0  0  0  0  0  0  0  0  0  0
   -5.1560   -4.5777    0.2393 H   0  0  0  0  0  0  0  0  0  0  0  0
   -3.5313    6.2242    0.8375 H   0  0  0  0  0  0  0  0  0  0  0  0
   -0.9292   -5.4619   -1.7700 H   0  0  0  0  0  0  0  0  0  0  0  0
    0.6087   -0.0128   -0.9637 H   0  0  0  0  0  0  0  0  0  0  0  0
   -1.6996   -0.1040    2.6686 H   0  0  0  0  0  0  0  0  0  0  0  0
    5.0984   -0.0288    2.8138 H   0  0  0  0  0  0  0  0  0  0  0  0
    1.1916   -0.1375    4.6895 H   0  0  0  0  0  0  0  0  0  0  0  0
    4.3721    1.1305   -1.4720 H   0  0  0  0  0  0  0  0  0  0  0  0
    6.5424   -1.1223    1.4688 H   0  0  0  0  0  0  0  0  0  0  0  0
    8.5423   -1.0569    0.0861 H   0  0  0  0  0  0  0  0  0  0  0  0
    9.4534   -0.3862   -1.8063 H   0  0  0  0  0  0  0  0  0  0  0  0
    5.3340    2.3557   -4.5424 H   0  0  0  0  0  0  0  0  0  0  0  0
    4.8999    2.7240   -2.8787 H   0  0  0  0  0  0  0  0  0  0  0  0
    4.3830    1.1646   -3.6656 H   0  0  0  0  0  0  0  0  0  0  0  0
  1 16  1  0  0  0  0
  1 20  1  0  0  0  0
  2 20  1  0  0  0  0
  2 24  1  0  0  0  0
  3 22  1  0  0  0  0
  3 23  1  0  0  0  0
  4 17  1  0  0  0  0
  4 56  1  0  0  0  0
  5 18  1  0  0  0  0
  5 57  1  0  0  0  0
  6 19  1  0  0  0  0
  6 58  1  0  0  0  0
  7 22  1  0  0  0  0
  7 27  1  0  0  0  0
  8 21  1  0  0  0  0
  8 59  1  0  0  0  0
  9 25  1  0  0  0  0
  9 60  1  0  0  0  0
 10 26  1  0  0  0  0
 10 61  1  0  0  0  0
 11 30  1  0  0  0  0
 11 34  1  0  0  0  0
 12 31  1  0  0  0  0
 12 65  1  0  0  0  0
 13 33  2  0  0  0  0
 14 39  1  0  0  0  0
 14 42  1  0  0  0  0
 15 41  1  0  0  0  0
 15 69  1  0  0  0  0
 16 19  1  0  0  0  0
 16 22  1  0  0  0  0
 16 43  1  0  0  0  0
 17 18  1  0  0  0  0
 17 24  1  0  0  0  0
 17 25  1  0  0  0  0
 18 20  1  0  0  0  0
 18 44  1  0  0  0  0
 19 21  1  0  0  0  0
 19 45  1  0  0  0  0
 20 46  1  0  0  0  0
 21 23  1  0  0  0  0
 21 47  1  0  0  0  0
 22 48  1  0  0  0  0
 23 26  1  0  0  0  0
 23 49  1  0  0  0  0
 24 50  1  0  0  0  0
 24 51  1  0  0  0  0
 25 52  1  0  0  0  0
 25 53  1  0  0  0  0
 26 54  1  0  0  0  0
 26 55  1  0  0  0  0
 27 28  1  0  0  0  0
 27 29  2  0  0  0  0
 28 30  2  0  0  0  0
 28 62  1  0  0  0  0
 29 31  1  0  0  0  0
 29 63  1  0  0  0  0
 30 32  1  0  0  0  0
 31 32  2  0  0  0  0
 32 33  1  0  0  0  0
 33 35  1  0  0  0  0
 34 35  2  0  0  0  0
 34 36  1  0  0  0  0
 35 64  1  0  0  0  0
 36 37  2  0  0  0  0
 36 38  1  0  0  0  0
 37 39  1  0  0  0  0
 37 66  1  0  0  0  0
 38 40  2  0  0  0  0
 38 67  1  0  0  0  0
 39 41  2  0  0  0  0
 40 41  1  0  0  0  0
 40 68  1  0  0  0  0
 42 70  1  0  0  0  0
 42 71  1  0  0  0  0
 42 72  1  0  0  0  0
M  END
> <PUBCHEM_COMPOUND_CID>
6324921

> <PUBCHEM_CONFORMER_RMSD>
1.2

> <PUBCHEM_CONFORMER_DIVERSEORDER>
2
28
38
55
61
54
12
40
64
26
13
20
43
41
63
52
22
49
59
29
50
58
16
15
53
39
36
23
25
5
21
56
45
11
27
42
51
6
37
24
48
33
14
47
3
18
44
19
10
35
1
60
30
34
62
31
57
32
17
4
46
8
7
9

> <PUBCHEM_MMFF94_PARTIAL_CHARGES>
56
1 -0.56
10 -0.68
11 -0.16
12 -0.53
13 -0.57
14 -0.36
15 -0.53
16 0.28
17 0.28
18 0.28
19 0.28
2 -0.56
20 0.56
21 0.28
22 0.56
23 0.28
24 0.28
25 0.28
26 0.28
27 0.08
28 -0.15
29 -0.15
3 -0.56
30 0.08
31 0.08
32 0.09
33 0.47
34 0.05
35 -0.14
36 0.03
37 -0.15
38 -0.15
39 0.08
4 -0.68
40 -0.15
41 0.08
42 0.28
5 -0.68
56 0.4
57 0.4
58 0.4
59 0.4
6 -0.68
60 0.4
61 0.4
62 0.15
63 0.15
64 0.15
65 0.45
66 0.15
67 0.15
68 0.15
69 0.45
7 -0.36
8 -0.68
9 -0.68

> <PUBCHEM_EFFECTIVE_ROTOR_COUNT>
10.2

> <PUBCHEM_PHARMACOPHORE_FEATURES>
26
1 1 acceptor
1 10 acceptor
1 10 donor
1 11 acceptor
1 12 donor
1 13 acceptor
1 14 acceptor
1 15 donor
1 2 acceptor
1 3 acceptor
1 4 acceptor
1 4 donor
1 5 acceptor
1 5 donor
1 6 acceptor
1 6 donor
1 7 acceptor
1 8 acceptor
1 8 donor
1 9 acceptor
1 9 donor
5 2 17 18 20 24 rings
6 11 30 32 33 34 35 rings
6 27 28 29 30 31 32 rings
6 3 16 19 21 22 23 rings
6 36 37 38 39 40 41 rings

> <PUBCHEM_HEAVY_ATOM_COUNT>
42

> <PUBCHEM_ATOM_DEF_STEREO_COUNT>
7

> <PUBCHEM_ATOM_UDEF_STEREO_COUNT>
1

> <PUBCHEM_BOND_DEF_STEREO_COUNT>
0

> <PUBCHEM_BOND_UDEF_STEREO_COUNT>
0

> <PUBCHEM_ISOTOPIC_ATOM_COUNT>
0

> <PUBCHEM_COMPONENT_COUNT>
1

> <PUBCHEM_CACTVS_TAUTO_COUNT>
25

> <PUBCHEM_CONFORMER_ID>
006082B900000002

> <PUBCHEM_MMFF94_ENERGY>
152.9921

> <PUBCHEM_FEATURE_SELFOVERLAP>
132.123

> <PUBCHEM_SHAPE_FINGERPRINT>
10010297 198 17315058966416002411
10165383 225 18130231459343961169
11049842 53 18050831248302368019
11200772 71 18333452045046211260
11227688 84 15768393595228406924
11273773 42 17458067071079124108
11410812 94 18410578384464338156
12342043 65 17487331792597040371
12788726 201 18189036746727081971
131258 43 17833557069423267975
13690498 29 18269275827534276175
13782708 43 17559950107384227383
14114211 68 17984131571038921425
14202776 33 18259990379197271165
14279260 333 16343154510686514635
14664723 55 18117844304646328597
15021287 119 16808393000419706946
15297060 5 18199469870576205745
15324884 4 17487595619304452155
15328829 1 17749104513000782815
16990350 14 17333651574961830161
16992828 155 17677326087674971693
19304144 158 17698700817690070064
19309040 13 17749395815016043842
21033650 10 18407755945481919539
21133410 127 17540535717341349853
21772528 278 16588034510889200634
21796203 349 18117019848057587139
22122407 14 16010133308142765943
24771750 20 18055350228872387191
249057 25 17604127286755842448
25223398 141 18271520983624047710
3552219 110 17531815774642063383
3610482 184 18041006132755268428
38570 142 17604156917672231920
4015057 19 15913031162326946707
4258327 124 17749662992642731493
5265222 85 18340204210530471438
58902169 19 17967531243187430958
5911458 16 17895763893801319844
6201320 77 17058677202888324919
6608658 132 17968086517248545005
6697151 62 16343409636529514130
6700243 42 18128255794834066934
6703917 75 18271532984026624801

> <PUBCHEM_SHAPE_MULTIPOLES>
776.3
19.64
5.37
3.41
31.34
0.85
-2.44
-6.2
15.43
-15.89
2.41
5.81
-0.59
-3.44

> <PUBCHEM_SHAPE_SELFOVERLAP>
1693.4

> <PUBCHEM_SHAPE_VOLUME>
417.6

> <PUBCHEM_COORDINATE_TYPE>
2
5
10

$$$$
