5490092
  -OEChem-02172602233D

 50 53  0     1  0  0  0  0  0999 V2000
   -3.1345    0.1949   -0.5738 O   0  0  0  0  0  0  0  0  0  0  0  0
   -2.2755    0.8578    1.4918 O   0  0  0  0  0  0  0  0  0  0  0  0
   -6.4763   -1.4169    1.1872 O   0  0  0  0  0  0  0  0  0  0  0  0
   -5.7855   -2.1469   -1.5231 O   0  0  0  0  0  0  0  0  0  0  0  0
   -4.0433   -0.9385    2.7787 O   0  0  0  0  0  0  0  0  0  0  0  0
   -2.4793   -0.1266   -3.2240 O   0  0  0  0  0  0  0  0  0  0  0  0
    2.2133   -0.3034    0.4623 O   0  0  0  0  0  0  0  0  0  0  0  0
    0.5922    4.2029   -0.2859 O   0  0  0  0  0  0  0  0  0  0  0  0
    3.0546    3.4711   -0.8198 O   0  0  0  0  0  0  0  0  0  0  0  0
   -5.1389   -1.4315    0.6858 C   0  0  1  0  0  0  0  0  0  0  0  0
   -5.1870   -1.0746   -0.8000 C   0  0  1  0  0  0  0  0  0  0  0  0
   -4.2908   -0.4289    1.4685 C   0  0  2  0  0  0  0  0  0  0  0  0
   -3.7789   -0.8216   -1.3437 C   0  0  1  0  0  0  0  0  0  0  0  0
   -2.9443   -0.1873    0.7864 C   0  0  1  0  0  0  0  0  0  0  0  0
   -3.8098   -0.3499   -2.7940 C   0  0  0  0  0  0  0  0  0  0  0  0
   -1.0482    1.2226    1.0228 C   0  0  0  0  0  0  0  0  0  0  0  0
   -0.0163    0.2852    0.9700 C   0  0  0  0  0  0  0  0  0  0  0  0
   -0.8266    2.5331    0.5969 C   0  0  0  0  0  0  0  0  0  0  0  0
    1.2384    0.6613    0.4900 C   0  0  0  0  0  0  0  0  0  0  0  0
    1.4579    1.9707    0.0653 C   0  0  0  0  0  0  0  0  0  0  0  0
    0.4275    2.9122    0.1167 C   0  0  0  0  0  0  0  0  0  0  0  0
    2.7910    2.3405   -0.4345 C   0  0  0  0  0  0  0  0  0  0  0  0
    3.4687    0.0397   -0.0161 C   0  0  0  0  0  0  0  0  0  0  0  0
    3.8044    1.2663   -0.4462 C   0  0  0  0  0  0  0  0  0  0  0  0
    4.4423   -1.0706    0.0037 C   0  0  0  0  0  0  0  0  0  0  0  0
    5.8021   -0.8084    0.1893 C   0  0  0  0  0  0  0  0  0  0  0  0
    4.0083   -2.3881   -0.1624 C   0  0  0  0  0  0  0  0  0  0  0  0
    6.7218   -1.8571    0.2086 C   0  0  0  0  0  0  0  0  0  0  0  0
    4.9279   -3.4367   -0.1429 C   0  0  0  0  0  0  0  0  0  0  0  0
    6.2846   -3.1712    0.0425 C   0  0  0  0  0  0  0  0  0  0  0  0
   -4.7641   -2.4519    0.8332 H   0  0  0  0  0  0  0  0  0  0  0  0
   -5.8197   -0.1898   -0.9418 H   0  0  0  0  0  0  0  0  0  0  0  0
   -4.8361    0.5143    1.5930 H   0  0  0  0  0  0  0  0  0  0  0  0
   -3.1681   -1.7336   -1.2970 H   0  0  0  0  0  0  0  0  0  0  0  0
   -2.3395   -1.1023    0.8351 H   0  0  0  0  0  0  0  0  0  0  0  0
   -4.3567    0.5932   -2.8972 H   0  0  0  0  0  0  0  0  0  0  0  0
   -4.2643   -1.0952   -3.4529 H   0  0  0  0  0  0  0  0  0  0  0  0
   -6.9912   -2.0527    0.6614 H   0  0  0  0  0  0  0  0  0  0  0  0
   -5.2269   -2.9346   -1.4092 H   0  0  0  0  0  0  0  0  0  0  0  0
   -3.5608   -1.7782    2.6897 H   0  0  0  0  0  0  0  0  0  0  0  0
   -2.0832    0.5310   -2.6268 H   0  0  0  0  0  0  0  0  0  0  0  0
   -0.1721   -0.7332    1.3156 H   0  0  0  0  0  0  0  0  0  0  0  0
   -1.6351    3.2589    0.6400 H   0  0  0  0  0  0  0  0  0  0  0  0
    4.7827    1.5288   -0.8312 H   0  0  0  0  0  0  0  0  0  0  0  0
    1.4975    4.3483   -0.6005 H   0  0  0  0  0  0  0  0  0  0  0  0
    6.1801    0.1985    0.3443 H   0  0  0  0  0  0  0  0  0  0  0  0
    2.9581   -2.6233   -0.3170 H   0  0  0  0  0  0  0  0  0  0  0  0
    7.7778   -1.6514    0.3579 H   0  0  0  0  0  0  0  0  0  0  0  0
    4.5881   -4.4599   -0.2738 H   0  0  0  0  0  0  0  0  0  0  0  0
    7.0006   -3.9877    0.0584 H   0  0  0  0  0  0  0  0  0  0  0  0
  1 13  1  0  0  0  0
  1 14  1  0  0  0  0
  2 14  1  0  0  0  0
  2 16  1  0  0  0  0
  3 10  1  0  0  0  0
  3 38  1  0  0  0  0
  4 11  1  0  0  0  0
  4 39  1  0  0  0  0
  5 12  1  0  0  0  0
  5 40  1  0  0  0  0
  6 15  1  0  0  0  0
  6 41  1  0  0  0  0
  7 19  1  0  0  0  0
  7 23  1  0  0  0  0
  8 21  1  0  0  0  0
  8 45  1  0  0  0  0
  9 22  2  0  0  0  0
 10 11  1  0  0  0  0
 10 12  1  0  0  0  0
 10 31  1  0  0  0  0
 11 13  1  0  0  0  0
 11 32  1  0  0  0  0
 12 14  1  0  0  0  0
 12 33  1  0  0  0  0
 13 15  1  0  0  0  0
 13 34  1  0  0  0  0
 14 35  1  0  0  0  0
 15 36  1  0  0  0  0
 15 37  1  0  0  0  0
 16 17  1  0  0  0  0
 16 18  2  0  0  0  0
 17 19  2  0  0  0  0
 17 42  1  0  0  0  0
 18 21  1  0  0  0  0
 18 43  1  0  0  0  0
 19 20  1  0  0  0  0
 20 21  2  0  0  0  0
 20 22  1  0  0  0  0
 22 24  1  0  0  0  0
 23 24  2  0  0  0  0
 23 25  1  0  0  0  0
 24 44  1  0  0  0  0
 25 26  2  0  0  0  0
 25 27  1  0  0  0  0
 26 28  1  0  0  0  0
 26 46  1  0  0  0  0
 27 29  2  0  0  0  0
 27 47  1  0  0  0  0
 28 30  2  0  0  0  0
 28 48  1  0  0  0  0
 29 30  1  0  0  0  0
 29 49  1  0  0  0  0
 30 50  1  0  0  0  0
M  END
> <PUBCHEM_COMPOUND_CID>
5490092

> <PUBCHEM_CONFORMER_RMSD>
0.8

> <PUBCHEM_CONFORMER_DIVERSEORDER>
2
101
65
47
3
120
10
33
117
31
43
122
115
11
109
118
102
55
67
8
5
69
110
15
89
62
76
121
125
42
131
45
116
123
104
105
107
126
6
88
128
119
34
26
12
4
21
35
127
9
98
114
46
86
99
84
113
1
132
83
63
66
124
82
73
77
108
38
7
40
27
91
78
60
32
111
90
112
72
48
80
129
75
50
52
96
57
79
87
61
51
85
53
30
71
68
28
97
54
74
95
130
17
106
58
92
100
16
22
20
41
29
37
36
70
39
49
64
59
93
94
103
24
25
44
19
56
81
23
13
18
14

> <PUBCHEM_MMFF94_PARTIAL_CHARGES>
43
1 -0.56
10 0.28
11 0.28
12 0.28
13 0.28
14 0.56
15 0.28
16 0.08
17 -0.15
18 -0.15
19 0.08
2 -0.36
20 0.09
21 0.08
22 0.47
23 0.05
24 -0.14
25 0.03
26 -0.15
27 -0.15
28 -0.15
29 -0.15
3 -0.68
30 -0.15
38 0.4
39 0.4
4 -0.68
40 0.4
41 0.4
42 0.15
43 0.15
44 0.15
45 0.45
46 0.15
47 0.15
48 0.15
49 0.15
5 -0.68
50 0.15
6 -0.68
7 -0.16
8 -0.53
9 -0.57

> <PUBCHEM_EFFECTIVE_ROTOR_COUNT>
5.2

> <PUBCHEM_PHARMACOPHORE_FEATURES>
17
1 1 acceptor
1 2 acceptor
1 3 acceptor
1 3 donor
1 4 acceptor
1 4 donor
1 5 acceptor
1 5 donor
1 6 acceptor
1 6 donor
1 7 acceptor
1 8 donor
1 9 acceptor
6 1 10 11 12 13 14 rings
6 16 17 18 19 20 21 rings
6 25 26 27 28 29 30 rings
6 7 19 20 22 23 24 rings

> <PUBCHEM_HEAVY_ATOM_COUNT>
30

> <PUBCHEM_ATOM_DEF_STEREO_COUNT>
5

> <PUBCHEM_ATOM_UDEF_STEREO_COUNT>
0

> <PUBCHEM_BOND_DEF_STEREO_COUNT>
0

> <PUBCHEM_BOND_UDEF_STEREO_COUNT>
0

> <PUBCHEM_ISOTOPIC_ATOM_COUNT>
0

> <PUBCHEM_COMPONENT_COUNT>
1

> <PUBCHEM_CACTVS_TAUTO_COUNT>
5

> <PUBCHEM_CONFORMER_ID>
0053C5AC00000002

> <PUBCHEM_MMFF94_ENERGY>
100.5506

> <PUBCHEM_FEATURE_SELFOVERLAP>
86.368

> <PUBCHEM_SHAPE_FINGERPRINT>
10319926 262 15051741888625268910
10577160 103 16154005612087523150
10622 236 18341890766540179875
10670039 82 14851598864910672518
11135926 11 18191879027155531588
11211813 128 18270963441873774090
11227688 84 18047476621826856602
11410812 94 16081645562205603214
11497681 19 18200036136998461166
12107183 9 18269572546046201505
12166972 35 17967540064517565686
12342043 65 17388564832485282683
12390115 104 9294705624535922840
12422481 6 17203051759891593950
12633257 1 15769769178067793539
13540713 5 18266485160139824768
13673619 4 17531262672763510395
13782708 43 17821729481083292739
13911987 19 17756446102717649460
1454969 45 18410296922382766972
15163728 17 13551757262473310712
15183329 4 15719391703326122346
15320294 125 17489588974484269607
1813 80 18273225191654398516
19315092 285 17704068525617738664
19319366 153 16905508863976324431
20028762 73 18273216378957091558
21033650 10 15936407806088871237
22393880 68 17530958085918998099
23536364 44 17968651610247929357
23559900 14 18187932840856885504
23569914 152 17904730355796784279
2838139 119 12613043794506620238
314194 84 18341057409877731768
34797466 226 16516255170485985725
3882209 13 17103654684876334018
4015057 19 18334864969027420633
46194498 28 17386289920956925724
613672 6 18334284354321929472
6431902 208 18338516335791216498
70251023 43 18335704923166038280
7970288 3 18412263943135208130
86090 222 14598784144884559174

> <PUBCHEM_SHAPE_MULTIPOLES>
564.56
15.82
3.93
1.85
2.54
2.29
-0.91
-17.94
-0.14
4.85
-0.48
-4.21
-0.5
-0.81

> <PUBCHEM_SHAPE_SELFOVERLAP>
1237.172

> <PUBCHEM_SHAPE_VOLUME>
301.7

> <PUBCHEM_COORDINATE_TYPE>
2
5
10

$$$$
