101666687
  -OEChem-02172602433D

 47 48  0     1  0  0  0  0  0999 V2000
   -5.1381   -3.6118   -0.2753 Cl  0  0  0  0  0  0  0  0  0  0  0  0
    3.5174   -2.2667   -1.0849 O   0  0  0  0  0  0  0  0  0  0  0  0
   -0.4857    1.2770   -0.6692 N   0  0  0  0  0  0  0  0  0  0  0  0
    4.3466   -0.4810    0.1886 N   0  0  0  0  0  0  0  0  0  0  0  0
   -4.1087    1.0747    1.3760 N   0  0  0  0  0  0  0  0  0  0  0  0
    1.8027    2.0691   -1.0245 C   0  0  0  0  0  0  0  0  0  0  0  0
    0.3720    2.4426   -0.6141 C   0  0  1  0  0  0  0  0  0  0  0  0
    2.3936    0.9582   -0.1502 C   0  0  0  0  0  0  0  0  0  0  0  0
    3.7888    0.5660   -0.6229 C   0  0  0  0  0  0  0  0  0  0  0  0
   -0.1996    3.5114   -1.5401 C   0  0  0  0  0  0  0  0  0  0  0  0
   -1.6928    1.1834    0.0001 C   0  0  0  0  0  0  0  0  0  0  0  0
    5.1233   -0.0499    1.3566 C   0  0  0  0  0  0  0  0  0  0  0  0
   -2.4935    0.0360   -0.0798 C   0  0  0  0  0  0  0  0  0  0  0  0
    4.1584   -1.8429   -0.1196 C   0  0  0  0  0  0  0  0  0  0  0  0
   -2.1006    2.2672    0.7643 C   0  0  0  0  0  0  0  0  0  0  0  0
    6.5878    0.1289    1.0136 C   0  0  0  0  0  0  0  0  0  0  0  0
   -3.7102    0.0244    0.6338 C   0  0  0  0  0  0  0  0  0  0  0  0
   -2.1084   -1.0782   -0.8445 C   0  0  0  0  0  0  0  0  0  0  0  0
    4.8044   -2.8266    0.8239 C   0  0  0  0  0  0  0  0  0  0  0  0
   -3.3065    2.1628    1.4271 C   0  0  0  0  0  0  0  0  0  0  0  0
   -4.5054   -1.1156    0.5538 C   0  0  0  0  0  0  0  0  0  0  0  0
   -2.9229   -2.2053   -0.9064 C   0  0  0  0  0  0  0  0  0  0  0  0
   -4.1229   -2.2236   -0.2064 C   0  0  0  0  0  0  0  0  0  0  0  0
    2.4437    2.9579   -0.9682 H   0  0  0  0  0  0  0  0  0  0  0  0
    1.8101    1.7384   -2.0715 H   0  0  0  0  0  0  0  0  0  0  0  0
    0.4487    2.8340    0.4074 H   0  0  0  0  0  0  0  0  0  0  0  0
    2.4299    1.2958    0.8928 H   0  0  0  0  0  0  0  0  0  0  0  0
    1.7517    0.0696   -0.1677 H   0  0  0  0  0  0  0  0  0  0  0  0
    3.7274    0.2075   -1.6575 H   0  0  0  0  0  0  0  0  0  0  0  0
    4.4628    1.4302   -0.6230 H   0  0  0  0  0  0  0  0  0  0  0  0
   -0.2538    0.5804   -1.3648 H   0  0  0  0  0  0  0  0  0  0  0  0
   -1.2087    3.8296   -1.2653 H   0  0  0  0  0  0  0  0  0  0  0  0
    0.4364    4.4035   -1.5314 H   0  0  0  0  0  0  0  0  0  0  0  0
   -0.2484    3.1497   -2.5741 H   0  0  0  0  0  0  0  0  0  0  0  0
    4.7077    0.8942    1.7277 H   0  0  0  0  0  0  0  0  0  0  0  0
    5.0218   -0.7682    2.1739 H   0  0  0  0  0  0  0  0  0  0  0  0
   -1.5441    3.1861    0.8918 H   0  0  0  0  0  0  0  0  0  0  0  0
    7.0355   -0.7864    0.6170 H   0  0  0  0  0  0  0  0  0  0  0  0
    6.7206    0.9095    0.2571 H   0  0  0  0  0  0  0  0  0  0  0  0
    7.1518    0.4254    1.9035 H   0  0  0  0  0  0  0  0  0  0  0  0
   -1.1789   -1.1176   -1.4035 H   0  0  0  0  0  0  0  0  0  0  0  0
    4.3149   -2.7914    1.8006 H   0  0  0  0  0  0  0  0  0  0  0  0
    4.6753   -3.8382    0.4247 H   0  0  0  0  0  0  0  0  0  0  0  0
    5.8760   -2.6500    0.9213 H   0  0  0  0  0  0  0  0  0  0  0  0
   -3.6765    2.9769    2.0420 H   0  0  0  0  0  0  0  0  0  0  0  0
   -5.4483   -1.1405    1.0990 H   0  0  0  0  0  0  0  0  0  0  0  0
   -2.6087   -3.0588   -1.5012 H   0  0  0  0  0  0  0  0  0  0  0  0
  1 23  1  0  0  0  0
  2 14  2  0  0  0  0
  3  7  1  0  0  0  0
  3 11  1  0  0  0  0
  3 31  1  0  0  0  0
  4  9  1  0  0  0  0
  4 12  1  0  0  0  0
  4 14  1  0  0  0  0
  5 17  2  0  0  0  0
  5 20  1  0  0  0  0
  6  7  1  0  0  0  0
  6  8  1  0  0  0  0
  6 24  1  0  0  0  0
  6 25  1  0  0  0  0
  7 10  1  0  0  0  0
  7 26  1  0  0  0  0
  8  9  1  0  0  0  0
  8 27  1  0  0  0  0
  8 28  1  0  0  0  0
  9 29  1  0  0  0  0
  9 30  1  0  0  0  0
 10 32  1  0  0  0  0
 10 33  1  0  0  0  0
 10 34  1  0  0  0  0
 11 13  2  0  0  0  0
 11 15  1  0  0  0  0
 12 16  1  0  0  0  0
 12 35  1  0  0  0  0
 12 36  1  0  0  0  0
 13 17  1  0  0  0  0
 13 18  1  0  0  0  0
 14 19  1  0  0  0  0
 15 20  2  0  0  0  0
 15 37  1  0  0  0  0
 16 38  1  0  0  0  0
 16 39  1  0  0  0  0
 16 40  1  0  0  0  0
 17 21  1  0  0  0  0
 18 22  2  0  0  0  0
 18 41  1  0  0  0  0
 19 42  1  0  0  0  0
 19 43  1  0  0  0  0
 19 44  1  0  0  0  0
 20 45  1  0  0  0  0
 21 23  2  0  0  0  0
 21 46  1  0  0  0  0
 22 23  1  0  0  0  0
 22 47  1  0  0  0  0
M  END
> <PUBCHEM_COMPOUND_CID>
101666687

> <PUBCHEM_CONFORMER_RMSD>
1.2

> <PUBCHEM_CONFORMER_DIVERSEORDER>
1
89
3
92
82
98
58
15
31
35
4
30
75
80
46
63
7
100
20
27
65
56
25
11
77
22
9
24
2
60
83
48
73
52
19
84
43
86
5
91
13
16
33
96
39
38
21
70
62
41
29
55
71
94
18
102
44
51
79
50
74
42
69
14
78
101
36
97
76
47
93
95
10
68
66
103
23
64
54
34
67
90
26
72
6
32
88
28
40
99
53
49
37
81
12
85
87
57
45
61
17
59
8

> <PUBCHEM_MMFF94_PARTIAL_CHARGES>
24
1 -0.18
11 0.1
12 0.3
14 0.57
15 -0.15
17 0.31
18 -0.15
19 0.06
2 -0.57
20 0.16
21 -0.15
22 -0.15
23 0.18
3 -0.87
31 0.4
37 0.15
4 -0.66
41 0.15
45 0.15
46 0.15
47 0.15
5 -0.62
7 0.37
9 0.3

> <PUBCHEM_EFFECTIVE_ROTOR_COUNT>
8

> <PUBCHEM_PHARMACOPHORE_FEATURES>
6
1 2 acceptor
1 3 cation
1 3 donor
1 5 acceptor
6 13 17 18 21 22 23 rings
6 5 11 13 15 17 20 rings

> <PUBCHEM_HEAVY_ATOM_COUNT>
23

> <PUBCHEM_ATOM_DEF_STEREO_COUNT>
1

> <PUBCHEM_ATOM_UDEF_STEREO_COUNT>
0

> <PUBCHEM_BOND_DEF_STEREO_COUNT>
0

> <PUBCHEM_BOND_UDEF_STEREO_COUNT>
0

> <PUBCHEM_ISOTOPIC_ATOM_COUNT>
0

> <PUBCHEM_COMPONENT_COUNT>
1

> <PUBCHEM_CACTVS_TAUTO_COUNT>
12

> <PUBCHEM_CONFORMER_ID>
060F4F7F00000001

> <PUBCHEM_MMFF94_ENERGY>
65.475

> <PUBCHEM_FEATURE_SELFOVERLAP>
30.477

> <PUBCHEM_SHAPE_FINGERPRINT>
10042902 136 18339094709061531438
10319688 67 17274279257827636123
10928967 22 18045230340761187018
11552529 35 17988349434474926540
12107183 9 18338527361241277969
12174731 88 17683512945257597882
12523318 42 18131353007589297633
12553582 1 18334303050256864972
12596602 18 17846501443928858640
12892183 10 18060698394831026224
13583140 156 17203597186441861232
14420673 8 17983870990461070318
1454969 45 18262518212918490772
14950920 106 17986946363465096248
15250474 111 18411422851193993830
15537594 2 18189348900422734486
16110190 28 18341614768327195190
17492 89 18340212993564330159
17780758 139 18343860004961574880
17857418 61 18410572911446563398
1813 80 17604160250435082580
19141452 34 18338802191249473129
19319366 153 17186445084395295589
21033648 29 15769512966300208225
21673915 165 18413106148046711194
23503958 8 18343584044643549681
235170 7 14129354957208057442
312425 54 18202004270578682112
339767 52 18410001152520577326
5104073 3 18200588104161207786
56633871 153 18338806589464607555
5924683 9 18343299262731781921
7064713 232 18058736796934768736
7097593 13 18340778129645659637
7970288 3 18263076763765526506

> <PUBCHEM_SHAPE_MULTIPOLES>
454.39
13.6
4.17
1.3
13.3
0.56
-0.11
11.17
-4.58
-2.42
0.99
0.1
-0.55
-1.89

> <PUBCHEM_SHAPE_SELFOVERLAP>
932.701

> <PUBCHEM_SHAPE_VOLUME>
263.6

> <PUBCHEM_COORDINATE_TYPE>
2
5
10

$$$$
