5281881
  -OEChem-02172602473D

 55 58  0     0  0  0  0  0  0999 V2000
    4.5276   -0.2634   -1.5930 S   0  0  0  0  0  0  0  0  0  0  0  0
    0.0014   -4.9398    0.1200 F   0  0  0  0  0  0  0  0  0  0  0  0
   -0.1166   -3.6961    1.8929 F   0  0  0  0  0  0  0  0  0  0  0  0
   -1.2884   -3.1891    0.1326 F   0  0  0  0  0  0  0  0  0  0  0  0
   -8.6548   -0.0080    0.7538 O   0  0  0  0  0  0  0  0  0  0  0  0
   -2.5333    1.4200   -0.6806 N   0  0  0  0  0  0  0  0  0  0  0  0
   -5.3915    1.3802   -0.2477 N   0  0  0  0  0  0  0  0  0  0  0  0
   -3.1018    1.0582    0.6237 C   0  0  0  0  0  0  0  0  0  0  0  0
   -3.4250    2.3460   -1.3896 C   0  0  0  0  0  0  0  0  0  0  0  0
   -4.5006    0.4534    0.4611 C   0  0  0  0  0  0  0  0  0  0  0  0
   -4.8232    1.7399   -1.5524 C   0  0  0  0  0  0  0  0  0  0  0  0
   -1.2011    2.0002   -0.5233 C   0  0  0  0  0  0  0  0  0  0  0  0
   -6.7245    0.8015   -0.4037 C   0  0  0  0  0  0  0  0  0  0  0  0
   -0.2531    0.9850    0.1137 C   0  0  0  0  0  0  0  0  0  0  0  0
   -7.3570    0.5368    0.9532 C   0  0  0  0  0  0  0  0  0  0  0  0
    1.1209    1.5561    0.2634 C   0  0  0  0  0  0  0  0  0  0  0  0
    2.2470    0.8183    0.2103 C   0  0  0  0  0  0  0  0  0  0  0  0
    2.1508   -0.6237   -0.1424 C   0  0  0  0  0  0  0  0  0  0  0  0
    3.5624    1.4939    0.3724 C   0  0  0  0  0  0  0  0  0  0  0  0
    3.1486   -1.2049   -0.9479 C   0  0  0  0  0  0  0  0  0  0  0  0
    4.6594    1.0618   -0.3969 C   0  0  0  0  0  0  0  0  0  0  0  0
    1.1154   -1.4400    0.3457 C   0  0  0  0  0  0  0  0  0  0  0  0
    3.7575    2.5243    1.3091 C   0  0  0  0  0  0  0  0  0  0  0  0
    1.0531   -2.7938    0.0119 C   0  0  0  0  0  0  0  0  0  0  0  0
    3.0729   -2.5651   -1.2831 C   0  0  0  0  0  0  0  0  0  0  0  0
    5.9069    1.6865   -0.2497 C   0  0  0  0  0  0  0  0  0  0  0  0
    2.0279   -3.3543   -0.8060 C   0  0  0  0  0  0  0  0  0  0  0  0
    5.0045    3.1346    1.4526 C   0  0  0  0  0  0  0  0  0  0  0  0
    6.0767    2.7196    0.6705 C   0  0  0  0  0  0  0  0  0  0  0  0
   -0.0621   -3.6382    0.5294 C   0  0  0  0  0  0  0  0  0  0  0  0
   -3.1469    1.9290    1.2916 H   0  0  0  0  0  0  0  0  0  0  0  0
   -2.5138    0.2831    1.1231 H   0  0  0  0  0  0  0  0  0  0  0  0
   -3.0235    2.5567   -2.3882 H   0  0  0  0  0  0  0  0  0  0  0  0
   -3.4981    3.3044   -0.8576 H   0  0  0  0  0  0  0  0  0  0  0  0
   -4.4318   -0.5085   -0.0651 H   0  0  0  0  0  0  0  0  0  0  0  0
   -4.8518    0.2523    1.4773 H   0  0  0  0  0  0  0  0  0  0  0  0
   -5.4639    2.4815   -2.0448 H   0  0  0  0  0  0  0  0  0  0  0  0
   -4.7710    0.8633   -2.2124 H   0  0  0  0  0  0  0  0  0  0  0  0
   -1.2409    2.9182    0.0790 H   0  0  0  0  0  0  0  0  0  0  0  0
   -0.8058    2.2806   -1.5089 H   0  0  0  0  0  0  0  0  0  0  0  0
   -6.6981   -0.1247   -0.9935 H   0  0  0  0  0  0  0  0  0  0  0  0
   -7.3747    1.4925   -0.9561 H   0  0  0  0  0  0  0  0  0  0  0  0
   -0.5892    0.7365    1.1233 H   0  0  0  0  0  0  0  0  0  0  0  0
   -0.3063    0.1267   -0.5580 H   0  0  0  0  0  0  0  0  0  0  0  0
   -7.4618    1.4604    1.5315 H   0  0  0  0  0  0  0  0  0  0  0  0
   -6.8166   -0.1936    1.5588 H   0  0  0  0  0  0  0  0  0  0  0  0
    1.1701    2.6223    0.4729 H   0  0  0  0  0  0  0  0  0  0  0  0
    0.4077   -1.0970    1.0933 H   0  0  0  0  0  0  0  0  0  0  0  0
    2.9464    2.8617    1.9502 H   0  0  0  0  0  0  0  0  0  0  0  0
   -8.5520   -0.8442    0.2681 H   0  0  0  0  0  0  0  0  0  0  0  0
    3.8286   -3.0272   -1.9146 H   0  0  0  0  0  0  0  0  0  0  0  0
    6.7621    1.3731   -0.8445 H   0  0  0  0  0  0  0  0  0  0  0  0
    1.9959   -4.4052   -1.0797 H   0  0  0  0  0  0  0  0  0  0  0  0
    5.1377    3.9315    2.1784 H   0  0  0  0  0  0  0  0  0  0  0  0
    7.0469    3.1947    0.7811 H   0  0  0  0  0  0  0  0  0  0  0  0
  1 20  1  0  0  0  0
  1 21  1  0  0  0  0
  2 30  1  0  0  0  0
  3 30  1  0  0  0  0
  4 30  1  0  0  0  0
  5 15  1  0  0  0  0
  5 50  1  0  0  0  0
  6  8  1  0  0  0  0
  6  9  1  0  0  0  0
  6 12  1  0  0  0  0
  7 10  1  0  0  0  0
  7 11  1  0  0  0  0
  7 13  1  0  0  0  0
  8 10  1  0  0  0  0
  8 31  1  0  0  0  0
  8 32  1  0  0  0  0
  9 11  1  0  0  0  0
  9 33  1  0  0  0  0
  9 34  1  0  0  0  0
 10 35  1  0  0  0  0
 10 36  1  0  0  0  0
 11 37  1  0  0  0  0
 11 38  1  0  0  0  0
 12 14  1  0  0  0  0
 12 39  1  0  0  0  0
 12 40  1  0  0  0  0
 13 15  1  0  0  0  0
 13 41  1  0  0  0  0
 13 42  1  0  0  0  0
 14 16  1  0  0  0  0
 14 43  1  0  0  0  0
 14 44  1  0  0  0  0
 15 45  1  0  0  0  0
 15 46  1  0  0  0  0
 16 17  2  0  0  0  0
 16 47  1  0  0  0  0
 17 18  1  0  0  0  0
 17 19  1  0  0  0  0
 18 20  2  0  0  0  0
 18 22  1  0  0  0  0
 19 21  1  0  0  0  0
 19 23  2  0  0  0  0
 20 25  1  0  0  0  0
 21 26  2  0  0  0  0
 22 24  2  0  0  0  0
 22 48  1  0  0  0  0
 23 28  1  0  0  0  0
 23 49  1  0  0  0  0
 24 27  1  0  0  0  0
 24 30  1  0  0  0  0
 25 27  2  0  0  0  0
 25 51  1  0  0  0  0
 26 29  1  0  0  0  0
 26 52  1  0  0  0  0
 27 53  1  0  0  0  0
 28 29  2  0  0  0  0
 28 54  1  0  0  0  0
 29 55  1  0  0  0  0
M  END
> <PUBCHEM_COMPOUND_CID>
5281881

> <PUBCHEM_CONFORMER_RMSD>
1

> <PUBCHEM_CONFORMER_DIVERSEORDER>
2
10
17
21
13
22
6
12
23
18
7
9
19
3
20
16
4
15
5
14
8
1
11

> <PUBCHEM_MMFF94_PARTIAL_CHARGES>
39
1 -0.2
10 0.27
11 0.27
12 0.27
13 0.27
14 0.14
15 0.28
16 -0.29
17 -0.06
18 0.03
19 0.03
2 -0.34
20 0.1
21 0.1
22 -0.15
23 -0.15
24 -0.14
25 -0.15
26 -0.15
27 -0.15
28 -0.15
29 -0.15
3 -0.34
30 1.16
4 -0.34
47 0.15
48 0.15
49 0.15
5 -0.68
50 0.4
51 0.15
52 0.15
53 0.15
54 0.15
55 0.15
6 -0.81
7 -0.81
8 0.27
9 0.27

> <PUBCHEM_EFFECTIVE_ROTOR_COUNT>
7.4

> <PUBCHEM_PHARMACOPHORE_FEATURES>
8
1 5 acceptor
1 5 donor
1 6 cation
1 7 cation
6 1 17 18 19 20 21 rings
6 18 20 22 24 25 27 rings
6 19 21 23 26 28 29 rings
6 6 7 8 9 10 11 rings

> <PUBCHEM_HEAVY_ATOM_COUNT>
30

> <PUBCHEM_ATOM_DEF_STEREO_COUNT>
0

> <PUBCHEM_ATOM_UDEF_STEREO_COUNT>
0

> <PUBCHEM_BOND_DEF_STEREO_COUNT>
1

> <PUBCHEM_BOND_UDEF_STEREO_COUNT>
0

> <PUBCHEM_ISOTOPIC_ATOM_COUNT>
0

> <PUBCHEM_COMPONENT_COUNT>
1

> <PUBCHEM_CACTVS_TAUTO_COUNT>
1

> <PUBCHEM_CONFORMER_ID>
0050985900000002

> <PUBCHEM_MMFF94_ENERGY>
83.0363

> <PUBCHEM_FEATURE_SELFOVERLAP>
40.627

> <PUBCHEM_SHAPE_FINGERPRINT>
10074138 170 17974823354331382776
10165383 225 18410860988759361788
10169797 241 18261962821437974435
10316853 100 18335990838737811117
1100329 8 18338508635484560682
11991303 11 18187929538427824694
12596602 18 17918000452032798073
12597179 24 18341326782116571816
12645989 146 8286204950636497409
12730499 353 18412263921997585468
13402501 40 18334021583975382299
13533116 47 18131632245246775337
13540713 4 17985552397976251712
1361 2 18409451388633894713
13617811 41 18187375332975740165
13692114 37 18268705198120716271
14068700 686 18261669260476176853
16114785 44 17554591165673329972
18608769 82 18410014381795386843
19319366 153 18342730793471306502
19427546 62 18339641252008194924
20775438 99 18201146698691185414
21049683 118 18193813016473659232
21197605 99 18340488962783539287
21344244 181 17988657250476034758
21360443 126 18262804089170731628
21521721 280 18342178881795007713
22149856 69 18263098656247698785
22224240 67 18411416254562375849
22956985 138 17534890893505372450
23516275 137 17131014034546814871
23559900 14 17831564389160191725
239999 70 18200309896979181094
4073 2 18335706001788521513
4093350 32 17060346201398852901
4340502 62 18411698794395492436
437795 51 18343026592290543069
469060 322 17676754479277821711
484989 97 18336562525082610510
59520757 100 18042129919560028139
6669772 16 18413668002857318894
7399639 24 18187918431352779837
86090 222 18336274474199129089
9658208 31 18337677511661371380
9777508 108 18124306362410894432

> <PUBCHEM_SHAPE_MULTIPOLES>
583.58
16.56
5.02
1.33
31.1
6.61
-0.09
-13.89
1.27
-4.31
1.09
-0.11
-0.09
3.05

> <PUBCHEM_SHAPE_SELFOVERLAP>
1238.776

> <PUBCHEM_SHAPE_VOLUME>
329.4

> <PUBCHEM_COORDINATE_TYPE>
2
5
10

$$$$
