133562317
  -OEChem-02172602583D

 62 64  0     1  0  0  0  0  0999 V2000
    1.7831   -2.1835   -1.1640 O   0  0  0  0  0  0  0  0  0  0  0  0
   -1.5854    1.6773   -1.0082 O   0  0  0  0  0  0  0  0  0  0  0  0
   -1.8162   -0.4401   -0.0555 O   0  0  0  0  0  0  0  0  0  0  0  0
    4.7272    0.5737    1.3074 O   0  0  0  0  0  0  0  0  0  0  0  0
   -4.1837    2.3423   -0.1058 O   0  0  0  0  0  0  0  0  0  0  0  0
   -5.8976   -0.0390    0.1634 O   0  0  0  0  0  0  0  0  0  0  0  0
   -4.5666   -2.0722    1.7290 O   0  0  0  0  0  0  0  0  0  0  0  0
    3.0765   -4.0429   -0.8325 O   0  0  0  0  0  0  0  0  0  0  0  0
   -2.0237   -3.1822   -0.4126 O   0  0  0  0  0  0  0  0  0  0  0  0
    3.2079   -0.5753   -0.1999 C   0  0  2  0  0  0  0  0  0  0  0  0
    1.7857   -0.8030   -0.7274 C   0  0  1  0  0  0  0  0  0  0  0  0
    3.5701   -1.9736    0.3374 C   0  0  2  0  0  0  0  0  0  0  0  0
    3.3767    0.5685    0.8241 C   0  0  2  0  0  0  0  0  0  0  0  0
    3.1317    1.9888    0.2761 C   0  0  0  0  0  0  0  0  0  0  0  0
    1.3844    0.0015   -1.9317 C   0  0  0  0  0  0  0  0  0  0  0  0
    2.8274   -2.8670   -0.6158 C   0  0  0  0  0  0  0  0  0  0  0  0
   -0.1700    1.6566   -0.8030 C   0  0  1  0  0  0  0  0  0  0  0  0
   -2.2629    0.9130   -0.0112 C   0  0  2  0  0  0  0  0  0  0  0  0
   -3.7627    0.9918   -0.2964 C   0  0  1  0  0  0  0  0  0  0  0  0
   -4.5550    0.0767    0.6375 C   0  0  2  0  0  0  0  0  0  0  0  0
   -3.9477   -1.3255    0.6847 C   0  0  1  0  0  0  0  0  0  0  0  0
    0.5100    1.0254   -2.0060 C   0  0  0  0  0  0  0  0  0  0  0  0
   -2.4398   -1.2559    0.9377 C   0  0  1  0  0  0  0  0  0  0  0  0
    3.1012   -2.3148    1.7501 C   0  0  0  0  0  0  0  0  0  0  0  0
    0.3395    3.0867   -0.5286 C   0  0  0  0  0  0  0  0  0  0  0  0
    2.2189    2.8020    1.1763 C   0  0  0  0  0  0  0  0  0  0  0  0
    0.9982    3.2453    0.8157 C   0  0  0  0  0  0  0  0  0  0  0  0
   -1.7921   -2.6355    0.8729 C   0  0  0  0  0  0  0  0  0  0  0  0
    0.1965    1.6299   -3.3550 C   0  0  0  0  0  0  0  0  0  0  0  0
    2.7683    3.1310    2.5412 C   0  0  0  0  0  0  0  0  0  0  0  0
    3.8814   -0.3825   -1.0490 H   0  0  0  0  0  0  0  0  0  0  0  0
    1.0478   -0.7403    0.0767 H   0  0  0  0  0  0  0  0  0  0  0  0
    4.6471   -2.1447    0.2349 H   0  0  0  0  0  0  0  0  0  0  0  0
    2.7274    0.3712    1.6839 H   0  0  0  0  0  0  0  0  0  0  0  0
    2.7449    1.9536   -0.7411 H   0  0  0  0  0  0  0  0  0  0  0  0
    4.0781    2.5402    0.1897 H   0  0  0  0  0  0  0  0  0  0  0  0
    1.8474   -0.3305   -2.8615 H   0  0  0  0  0  0  0  0  0  0  0  0
    0.0584    1.0643    0.0886 H   0  0  0  0  0  0  0  0  0  0  0  0
   -2.0362    1.3530    0.9701 H   0  0  0  0  0  0  0  0  0  0  0  0
   -3.9671    0.7417   -1.3442 H   0  0  0  0  0  0  0  0  0  0  0  0
   -4.6228    0.5072    1.6434 H   0  0  0  0  0  0  0  0  0  0  0  0
   -4.1663   -1.8413   -0.2577 H   0  0  0  0  0  0  0  0  0  0  0  0
   -2.2320   -0.8372    1.9313 H   0  0  0  0  0  0  0  0  0  0  0  0
    2.0275   -2.1404    1.8790 H   0  0  0  0  0  0  0  0  0  0  0  0
    3.6373   -1.7220    2.4972 H   0  0  0  0  0  0  0  0  0  0  0  0
    3.2868   -3.3715    1.9737 H   0  0  0  0  0  0  0  0  0  0  0  0
   -0.4981    3.7953   -0.5717 H   0  0  0  0  0  0  0  0  0  0  0  0
    1.0476    3.4289   -1.2929 H   0  0  0  0  0  0  0  0  0  0  0  0
    0.4186    3.8157    1.5397 H   0  0  0  0  0  0  0  0  0  0  0  0
    5.3185    0.6442    0.5384 H   0  0  0  0  0  0  0  0  0  0  0  0
   -2.2008   -3.3111    1.6302 H   0  0  0  0  0  0  0  0  0  0  0  0
   -0.7090   -2.5545    1.0117 H   0  0  0  0  0  0  0  0  0  0  0  0
   -0.8727    1.5389   -3.5723 H   0  0  0  0  0  0  0  0  0  0  0  0
    0.7364    1.1348   -4.1694 H   0  0  0  0  0  0  0  0  0  0  0  0
    0.4666    2.6895   -3.3835 H   0  0  0  0  0  0  0  0  0  0  0  0
    2.9124    2.2231    3.1343 H   0  0  0  0  0  0  0  0  0  0  0  0
    2.1028    3.7910    3.1079 H   0  0  0  0  0  0  0  0  0  0  0  0
    3.7324    3.6415    2.4468 H   0  0  0  0  0  0  0  0  0  0  0  0
   -4.0082    2.5852    0.8193 H   0  0  0  0  0  0  0  0  0  0  0  0
   -5.8699   -0.3995   -0.7393 H   0  0  0  0  0  0  0  0  0  0  0  0
   -4.3778   -1.6244    2.5713 H   0  0  0  0  0  0  0  0  0  0  0  0
   -1.5930   -4.0536   -0.4355 H   0  0  0  0  0  0  0  0  0  0  0  0
  1 11  1  0  0  0  0
  1 16  1  0  0  0  0
  2 17  1  0  0  0  0
  2 18  1  0  0  0  0
  3 18  1  0  0  0  0
  3 23  1  0  0  0  0
  4 13  1  0  0  0  0
  4 50  1  0  0  0  0
  5 19  1  0  0  0  0
  5 59  1  0  0  0  0
  6 20  1  0  0  0  0
  6 60  1  0  0  0  0
  7 21  1  0  0  0  0
  7 61  1  0  0  0  0
  8 16  2  0  0  0  0
  9 28  1  0  0  0  0
  9 62  1  0  0  0  0
 10 11  1  0  0  0  0
 10 12  1  0  0  0  0
 10 13  1  0  0  0  0
 10 31  1  0  0  0  0
 11 15  1  0  0  0  0
 11 32  1  0  0  0  0
 12 16  1  0  0  0  0
 12 24  1  0  0  0  0
 12 33  1  0  0  0  0
 13 14  1  0  0  0  0
 13 34  1  0  0  0  0
 14 26  1  0  0  0  0
 14 35  1  0  0  0  0
 14 36  1  0  0  0  0
 15 22  2  0  0  0  0
 15 37  1  0  0  0  0
 17 22  1  0  0  0  0
 17 25  1  0  0  0  0
 17 38  1  0  0  0  0
 18 19  1  0  0  0  0
 18 39  1  0  0  0  0
 19 20  1  0  0  0  0
 19 40  1  0  0  0  0
 20 21  1  0  0  0  0
 20 41  1  0  0  0  0
 21 23  1  0  0  0  0
 21 42  1  0  0  0  0
 22 29  1  0  0  0  0
 23 28  1  0  0  0  0
 23 43  1  0  0  0  0
 24 44  1  0  0  0  0
 24 45  1  0  0  0  0
 24 46  1  0  0  0  0
 25 27  1  0  0  0  0
 25 47  1  0  0  0  0
 25 48  1  0  0  0  0
 26 27  2  0  0  0  0
 26 30  1  0  0  0  0
 27 49  1  0  0  0  0
 28 51  1  0  0  0  0
 28 52  1  0  0  0  0
 29 53  1  0  0  0  0
 29 54  1  0  0  0  0
 29 55  1  0  0  0  0
 30 56  1  0  0  0  0
 30 57  1  0  0  0  0
 30 58  1  0  0  0  0
M  END
> <PUBCHEM_COMPOUND_CID>
133562317

> <PUBCHEM_CONFORMER_RMSD>
0.8

> <PUBCHEM_CONFORMER_DIVERSEORDER>
1
174
173
32
79
161
150
160
58
88
93
189
104
138
179
80
3
62
172
158
139
153
84
114
134
147
111
165
10
155
97
85
39
106
44
23
167
152
126
128
162
196
157
113
105
132
191
64
4
107
120
144
168
194
181
8
110
87
190
187
5
176
30
178
135
69
56
12
195
89
33
41
182
51
156
133
141
143
37
164
101
136
151
183
42
140
46
34
27
26
25
73
99
177
72
125
142
130
170
54
83
47
192
159
70
59
96
19
129
119
60
197
55
98
45
71
66
185
28
9
13
146
82
43
7
127
116
76
154
103
115
95
100
77
2
21
121
75
11
117
180
14
175
163
40
137
90
184
124
188
29
18
52
16
48
49
63
148
169
6
149
24
86
171
35
68
50
78
53
81
122
112
102
91
186
166
123
131
31
20
108
61
118
17
57
94
193
36
92
15
74
65
109
67
145
38
22

> <PUBCHEM_MMFF94_PARTIAL_CHARGES>
35
1 -0.43
11 0.42
12 0.06
13 0.28
14 0.14
15 -0.29
16 0.66
17 0.42
18 0.56
19 0.28
2 -0.56
20 0.28
21 0.28
22 -0.28
23 0.28
25 0.14
26 -0.28
27 -0.29
28 0.28
29 0.14
3 -0.56
30 0.14
37 0.15
4 -0.68
49 0.15
5 -0.68
50 0.4
59 0.4
6 -0.68
60 0.4
61 0.4
62 0.4
7 -0.68
8 -0.57
9 -0.68

> <PUBCHEM_EFFECTIVE_ROTOR_COUNT>
5.4

> <PUBCHEM_PHARMACOPHORE_FEATURES>
15
1 2 acceptor
1 3 acceptor
1 4 acceptor
1 4 donor
1 5 acceptor
1 5 donor
1 6 acceptor
1 6 donor
1 7 acceptor
1 7 donor
1 8 acceptor
1 9 acceptor
1 9 donor
5 1 10 11 12 16 rings
6 3 18 19 20 21 23 rings

> <PUBCHEM_HEAVY_ATOM_COUNT>
30

> <PUBCHEM_ATOM_DEF_STEREO_COUNT>
9

> <PUBCHEM_ATOM_UDEF_STEREO_COUNT>
1

> <PUBCHEM_BOND_DEF_STEREO_COUNT>
2

> <PUBCHEM_BOND_UDEF_STEREO_COUNT>
0

> <PUBCHEM_ISOTOPIC_ATOM_COUNT>
0

> <PUBCHEM_COMPONENT_COUNT>
1

> <PUBCHEM_CACTVS_TAUTO_COUNT>
2

> <PUBCHEM_CONFORMER_ID>
07F5FFCD00000001

> <PUBCHEM_MMFF94_ENERGY>
78.2374

> <PUBCHEM_FEATURE_SELFOVERLAP>
76.189

> <PUBCHEM_SHAPE_FINGERPRINT>
1100329 8 15887714495012521783
12633257 1 18336809970921873096
12788726 201 17837789832639133990
13140716 1 18127677422117666712
13402501 40 18408881828509280498
13533116 47 18413672418310454793
13583140 156 18201152252115267381
14178342 30 17833276693916064803
15338160 23 16327358218300342504
15420108 30 18127398180550239186
17974551 9 18059009471751181825
1813 80 16661192780127239405
19930381 70 18197212555670545107
20600515 1 18122077407080176068
21421861 104 17971773300264431265
21756936 100 17340116055225575352
23419403 2 18192690298557899068
23559900 14 18335711580265100637
35225 105 17754996628458411730
460360 51 18263947508977532513
6823239 73 18341348733552257006
8988823 20 18273493481687879333

> <PUBCHEM_SHAPE_MULTIPOLES>
564.56
8.97
4.62
2.1
9.24
1.14
-0.91
2.55
4.16
-3.06
0.79
-1.18
-1.04
2.22

> <PUBCHEM_SHAPE_SELFOVERLAP>
1167.03

> <PUBCHEM_SHAPE_VOLUME>
320.7

> <PUBCHEM_COORDINATE_TYPE>
2
5
10

$$$$
