12281309
  -OEChem-02172602573D

 51 53  0     1  0  0  0  0  0999 V2000
    3.9180    1.1169   -0.9426 O   0  0  0  0  0  0  0  0  0  0  0  0
   -2.0903   -0.5846    0.7938 C   0  0  1  0  0  0  0  0  0  0  0  0
   -1.5025    0.8731    0.8764 C   0  0  2  0  0  0  0  0  0  0  0  0
   -2.6249   -1.0341   -0.6262 C   0  0  0  0  0  0  0  0  0  0  0  0
   -2.4982    1.8500    0.1899 C   0  0  0  0  0  0  0  0  0  0  0  0
   -3.5387    0.0705   -1.2124 C   0  0  0  0  0  0  0  0  0  0  0  0
   -1.1415   -1.5830    1.4825 C   0  0  0  0  0  0  0  0  0  0  0  0
   -2.8819    1.4427   -1.2238 C   0  0  0  0  0  0  0  0  0  0  0  0
   -0.0623    0.9234    0.3516 C   0  0  0  0  0  0  0  0  0  0  0  0
    0.3082   -1.5268    1.0130 C   0  0  0  0  0  0  0  0  0  0  0  0
   -1.4175    1.3342    2.3605 C   0  0  0  0  0  0  0  0  0  0  0  0
    0.7780   -0.2049    0.4639 C   0  0  0  0  0  0  0  0  0  0  0  0
   -3.4982   -2.3057   -0.4763 C   0  0  0  0  0  0  0  0  0  0  0  0
   -1.5367   -1.3675   -1.6649 C   0  0  0  0  0  0  0  0  0  0  0  0
    0.4881    2.1054   -0.1812 C   0  0  0  0  0  0  0  0  0  0  0  0
    2.1131   -0.1320    0.0233 C   0  0  0  0  0  0  0  0  0  0  0  0
    3.0200   -1.3223    0.1207 C   0  0  0  0  0  0  0  0  0  0  0  0
    2.6272    1.0429   -0.5156 C   0  0  0  0  0  0  0  0  0  0  0  0
    1.8141    2.1625   -0.6159 C   0  0  0  0  0  0  0  0  0  0  0  0
    4.2226   -1.0621    1.0423 C   0  0  0  0  0  0  0  0  0  0  0  0
    3.5032   -1.7986   -1.2588 C   0  0  0  0  0  0  0  0  0  0  0  0
   -2.9931   -0.5696    1.4263 H   0  0  0  0  0  0  0  0  0  0  0  0
   -2.1275    2.8803    0.1842 H   0  0  0  0  0  0  0  0  0  0  0  0
   -3.4218    1.8888    0.7858 H   0  0  0  0  0  0  0  0  0  0  0  0
   -4.4645    0.1316   -0.6239 H   0  0  0  0  0  0  0  0  0  0  0  0
   -3.8476   -0.1873   -2.2336 H   0  0  0  0  0  0  0  0  0  0  0  0
   -1.5102   -2.6113    1.4079 H   0  0  0  0  0  0  0  0  0  0  0  0
   -1.1546   -1.3765    2.5611 H   0  0  0  0  0  0  0  0  0  0  0  0
   -3.5914    2.1744   -1.6281 H   0  0  0  0  0  0  0  0  0  0  0  0
   -2.0098    1.4570   -1.8854 H   0  0  0  0  0  0  0  0  0  0  0  0
    0.4350   -2.2993    0.2467 H   0  0  0  0  0  0  0  0  0  0  0  0
    0.9279   -1.8053    1.8753 H   0  0  0  0  0  0  0  0  0  0  0  0
   -0.6789    0.7680    2.9384 H   0  0  0  0  0  0  0  0  0  0  0  0
   -1.1245    2.3894    2.4293 H   0  0  0  0  0  0  0  0  0  0  0  0
   -2.3854    1.2297    2.8641 H   0  0  0  0  0  0  0  0  0  0  0  0
   -3.9892   -2.5595   -1.4233 H   0  0  0  0  0  0  0  0  0  0  0  0
   -2.9058   -3.1768   -0.1798 H   0  0  0  0  0  0  0  0  0  0  0  0
   -4.2851   -2.1625    0.2725 H   0  0  0  0  0  0  0  0  0  0  0  0
   -0.8449   -0.5409   -1.8365 H   0  0  0  0  0  0  0  0  0  0  0  0
   -0.9610   -2.2520   -1.3817 H   0  0  0  0  0  0  0  0  0  0  0  0
   -1.9893   -1.6009   -2.6369 H   0  0  0  0  0  0  0  0  0  0  0  0
   -0.0978    3.0156   -0.2601 H   0  0  0  0  0  0  0  0  0  0  0  0
    2.5230   -2.1914    0.5549 H   0  0  0  0  0  0  0  0  0  0  0  0
    2.1967    3.0944   -1.0240 H   0  0  0  0  0  0  0  0  0  0  0  0
    4.9433   -0.3491    0.6337 H   0  0  0  0  0  0  0  0  0  0  0  0
    4.7691   -1.9963    1.2165 H   0  0  0  0  0  0  0  0  0  0  0  0
    3.8924   -0.6875    2.0177 H   0  0  0  0  0  0  0  0  0  0  0  0
    2.6559   -1.9521   -1.9367 H   0  0  0  0  0  0  0  0  0  0  0  0
    4.0246   -2.7581   -1.1614 H   0  0  0  0  0  0  0  0  0  0  0  0
    4.2014   -1.1104   -1.7421 H   0  0  0  0  0  0  0  0  0  0  0  0
    4.0901    2.0113   -1.2835 H   0  0  0  0  0  0  0  0  0  0  0  0
  1 18  1  0  0  0  0
  1 51  1  0  0  0  0
  2  3  1  0  0  0  0
  2  4  1  0  0  0  0
  2  7  1  0  0  0  0
  2 22  1  0  0  0  0
  3  5  1  0  0  0  0
  3  9  1  0  0  0  0
  3 11  1  0  0  0  0
  4  6  1  0  0  0  0
  4 13  1  0  0  0  0
  4 14  1  0  0  0  0
  5  8  1  0  0  0  0
  5 23  1  0  0  0  0
  5 24  1  0  0  0  0
  6  8  1  0  0  0  0
  6 25  1  0  0  0  0
  6 26  1  0  0  0  0
  7 10  1  0  0  0  0
  7 27  1  0  0  0  0
  7 28  1  0  0  0  0
  8 29  1  0  0  0  0
  8 30  1  0  0  0  0
  9 12  2  0  0  0  0
  9 15  1  0  0  0  0
 10 12  1  0  0  0  0
 10 31  1  0  0  0  0
 10 32  1  0  0  0  0
 11 33  1  0  0  0  0
 11 34  1  0  0  0  0
 11 35  1  0  0  0  0
 12 16  1  0  0  0  0
 13 36  1  0  0  0  0
 13 37  1  0  0  0  0
 13 38  1  0  0  0  0
 14 39  1  0  0  0  0
 14 40  1  0  0  0  0
 14 41  1  0  0  0  0
 15 19  2  0  0  0  0
 15 42  1  0  0  0  0
 16 17  1  0  0  0  0
 16 18  2  0  0  0  0
 17 20  1  0  0  0  0
 17 21  1  0  0  0  0
 17 43  1  0  0  0  0
 18 19  1  0  0  0  0
 19 44  1  0  0  0  0
 20 45  1  0  0  0  0
 20 46  1  0  0  0  0
 20 47  1  0  0  0  0
 21 48  1  0  0  0  0
 21 49  1  0  0  0  0
 21 50  1  0  0  0  0
M  END
> <PUBCHEM_COMPOUND_CID>
12281309

> <PUBCHEM_CONFORMER_RMSD>
0.6

> <PUBCHEM_CONFORMER_DIVERSEORDER>
1
3
5
4
2

> <PUBCHEM_MMFF94_PARTIAL_CHARGES>
13
1 -0.53
10 0.14
12 -0.14
15 -0.15
16 -0.14
17 0.14
18 0.08
19 -0.15
3 0.14
42 0.15
44 0.15
51 0.45
9 -0.14

> <PUBCHEM_EFFECTIVE_ROTOR_COUNT>
2.2

> <PUBCHEM_PHARMACOPHORE_FEATURES>
6
1 1 donor
3 17 20 21 hydrophobe
3 4 13 14 hydrophobe
6 2 3 4 5 6 8 rings
6 2 3 7 9 10 12 rings
6 9 12 15 16 18 19 rings

> <PUBCHEM_HEAVY_ATOM_COUNT>
21

> <PUBCHEM_ATOM_DEF_STEREO_COUNT>
2

> <PUBCHEM_ATOM_UDEF_STEREO_COUNT>
0

> <PUBCHEM_BOND_DEF_STEREO_COUNT>
0

> <PUBCHEM_BOND_UDEF_STEREO_COUNT>
0

> <PUBCHEM_ISOTOPIC_ATOM_COUNT>
0

> <PUBCHEM_COMPONENT_COUNT>
1

> <PUBCHEM_CACTVS_TAUTO_COUNT>
9

> <PUBCHEM_CONFORMER_ID>
00BB65DD00000001

> <PUBCHEM_MMFF94_ENERGY>
80.9594

> <PUBCHEM_FEATURE_SELFOVERLAP>
30.515

> <PUBCHEM_SHAPE_FINGERPRINT>
10062212 137 18334847282173006986
10756046 5 18408598175926186989
10764073 3 17685819789703457899
10863032 1 18335132137716104597
10948715 1 17896314719351558685
11578080 2 17774426309055181185
12423570 1 14802624865290496945
12553582 1 17631733905888791159
12592029 89 18117563920859777737
12596599 1 18341619157398740918
12788726 201 17417826015050041609
13140716 1 18334301924769659664
13224815 77 18343304777622692858
13299463 15 18266176330373129809
13583140 156 15575278821779715904
13693222 15 12895351092575757020
13764800 53 12107784090728245055
14181834 199 18187083992469160436
14787075 74 17413300631306510000
16752209 62 17988066812910590701
16945 1 18201998824312399361
17349148 13 18335128839408029096
17492 89 18412544331685731030
18186145 218 18113621153402818086
18981168 100 13984951791363852372
192875 21 18335408080627140880
19862831 5 18261388931843523406
200 152 18201439237202183244
21634736 98 18409728469621451180
21731516 1 17274257395716104687
22802520 49 18190456263145141593
2334 1 18334868246282821080
23402539 116 18262789667467441874
23419403 2 15688434192788355216
23557571 272 17988914557518477634
23559900 14 18200863037781433112
25 1 17605268485083121521
2748010 2 18188505647844516816
3286 77 17822560694282474230
3323516 105 18117269462202296591
34934 24 18118397350462466288
463206 1 17702365420703750639
5161694 15 18040708156308458783
5262128 65 18341903995181707710
6992083 37 18127705837193704368
74978 22 18040720268432822402
81228 2 18048321050866787552
90525 40 18202007607541410991
9709674 26 18334861670577218334
9981440 41 17758668241428744016

> <PUBCHEM_SHAPE_MULTIPOLES>
426.3
6.61
2.52
1.62
3.73
0.13
0.4
-1.88
-1.88
-0.33
-0.25
-0.58
-0.06
-0.55

> <PUBCHEM_SHAPE_SELFOVERLAP>
905.302

> <PUBCHEM_SHAPE_VOLUME>
238.4

> <PUBCHEM_COORDINATE_TYPE>
2
5
10

$$$$
