1794428
  -OEChem-02172602403D

 49 52  0     0  0  0  0  0  0999 V2000
   -3.7219    1.4157    0.1692 O   0  0  0  0  0  0  0  0  0  0  0  0
    7.9736   -0.1221    0.2606 O   0  0  0  0  0  0  0  0  0  0  0  0
    1.7466    0.8849    0.1815 N   0  0  0  0  0  0  0  0  0  0  0  0
   -2.9356   -0.6793   -0.1906 N   0  0  0  0  0  0  0  0  0  0  0  0
    0.3449    1.0705    0.1871 C   0  0  0  0  0  0  0  0  0  0  0  0
   -1.8804    0.1828   -0.0156 C   0  0  0  0  0  0  0  0  0  0  0  0
   -2.3577    1.4663    0.2051 C   0  0  0  0  0  0  0  0  0  0  0  0
    2.3454   -0.3819   -0.0335 C   0  0  0  0  0  0  0  0  0  0  0  0
   -0.4947   -0.0322   -0.0268 C   0  0  0  0  0  0  0  0  0  0  0  0
   -3.9870    0.1011   -0.0716 C   0  0  0  0  0  0  0  0  0  0  0  0
   -5.3817   -0.2332   -0.1590 C   0  0  0  0  0  0  0  0  0  0  0  0
    3.8473   -0.3129    0.0449 C   0  0  0  0  0  0  0  0  0  0  0  0
   -0.1789    2.3507    0.4061 C   0  0  0  0  0  0  0  0  0  0  0  0
   -1.5586    2.5822    0.4205 C   0  0  0  0  0  0  0  0  0  0  0  0
   -5.8521   -1.4977    0.2116 C   0  0  0  0  0  0  0  0  0  0  0  0
    4.4773   -0.5074    1.2659 C   0  0  0  0  0  0  0  0  0  0  0  0
    4.5799   -0.0550   -1.1052 C   0  0  0  0  0  0  0  0  0  0  0  0
   -6.2860    0.7269   -0.6251 C   0  0  0  0  0  0  0  0  0  0  0  0
   -7.2109   -1.7984    0.1170 C   0  0  0  0  0  0  0  0  0  0  0  0
    6.6159   -0.1841    0.1891 C   0  0  0  0  0  0  0  0  0  0  0  0
    5.8689   -0.4425    1.3384 C   0  0  0  0  0  0  0  0  0  0  0  0
    5.9714    0.0097   -1.0326 C   0  0  0  0  0  0  0  0  0  0  0  0
   -4.9217   -2.5553    0.7133 C   0  0  0  0  0  0  0  0  0  0  0  0
   -7.6448    0.4261   -0.7198 C   0  0  0  0  0  0  0  0  0  0  0  0
   -8.1073   -0.8364   -0.3489 C   0  0  0  0  0  0  0  0  0  0  0  0
    8.7036   -0.5092   -0.9025 C   0  0  0  0  0  0  0  0  0  0  0  0
   10.0448   -1.0691   -0.4792 C   0  0  0  0  0  0  0  0  0  0  0  0
    2.0685   -0.7849   -1.0169 H   0  0  0  0  0  0  0  0  0  0  0  0
    1.9992   -1.1128    0.7096 H   0  0  0  0  0  0  0  0  0  0  0  0
   -0.1263   -1.0363   -0.2007 H   0  0  0  0  0  0  0  0  0  0  0  0
    2.3236    1.7051    0.3334 H   0  0  0  0  0  0  0  0  0  0  0  0
    0.4905    3.1930    0.5701 H   0  0  0  0  0  0  0  0  0  0  0  0
   -1.9739    3.5679    0.5888 H   0  0  0  0  0  0  0  0  0  0  0  0
    3.9050   -0.7071    2.1674 H   0  0  0  0  0  0  0  0  0  0  0  0
    4.0869    0.1055   -2.0599 H   0  0  0  0  0  0  0  0  0  0  0  0
   -5.9568    1.7173   -0.9312 H   0  0  0  0  0  0  0  0  0  0  0  0
   -7.5890   -2.7772    0.3999 H   0  0  0  0  0  0  0  0  0  0  0  0
    6.3654   -0.5941    2.2929 H   0  0  0  0  0  0  0  0  0  0  0  0
    6.5135    0.2408   -1.9448 H   0  0  0  0  0  0  0  0  0  0  0  0
   -4.2766   -2.9187   -0.0930 H   0  0  0  0  0  0  0  0  0  0  0  0
   -4.3138   -2.1866    1.5461 H   0  0  0  0  0  0  0  0  0  0  0  0
   -5.4724   -3.4222    1.0967 H   0  0  0  0  0  0  0  0  0  0  0  0
   -8.3428    1.1740   -1.0846 H   0  0  0  0  0  0  0  0  0  0  0  0
   -9.1652   -1.0706   -0.4236 H   0  0  0  0  0  0  0  0  0  0  0  0
    8.1842   -1.2928   -1.4685 H   0  0  0  0  0  0  0  0  0  0  0  0
    8.8530    0.3676   -1.5421 H   0  0  0  0  0  0  0  0  0  0  0  0
   10.6371   -1.3672   -1.3490 H   0  0  0  0  0  0  0  0  0  0  0  0
   10.6091   -0.3261    0.0940 H   0  0  0  0  0  0  0  0  0  0  0  0
    9.9115   -1.9390    0.1725 H   0  0  0  0  0  0  0  0  0  0  0  0
  1  7  1  0  0  0  0
  1 10  1  0  0  0  0
  2 20  1  0  0  0  0
  2 26  1  0  0  0  0
  3  5  1  0  0  0  0
  3  8  1  0  0  0  0
  3 31  1  0  0  0  0
  4  6  1  0  0  0  0
  4 10  2  0  0  0  0
  5  9  2  0  0  0  0
  5 13  1  0  0  0  0
  6  7  2  0  0  0  0
  6  9  1  0  0  0  0
  7 14  1  0  0  0  0
  8 12  1  0  0  0  0
  8 28  1  0  0  0  0
  8 29  1  0  0  0  0
  9 30  1  0  0  0  0
 10 11  1  0  0  0  0
 11 15  1  0  0  0  0
 11 18  2  0  0  0  0
 12 16  2  0  0  0  0
 12 17  1  0  0  0  0
 13 14  2  0  0  0  0
 13 32  1  0  0  0  0
 14 33  1  0  0  0  0
 15 19  2  0  0  0  0
 15 23  1  0  0  0  0
 16 21  1  0  0  0  0
 16 34  1  0  0  0  0
 17 22  2  0  0  0  0
 17 35  1  0  0  0  0
 18 24  1  0  0  0  0
 18 36  1  0  0  0  0
 19 25  1  0  0  0  0
 19 37  1  0  0  0  0
 20 21  2  0  0  0  0
 20 22  1  0  0  0  0
 21 38  1  0  0  0  0
 22 39  1  0  0  0  0
 23 40  1  0  0  0  0
 23 41  1  0  0  0  0
 23 42  1  0  0  0  0
 24 25  2  0  0  0  0
 24 43  1  0  0  0  0
 25 44  1  0  0  0  0
 26 27  1  0  0  0  0
 26 45  1  0  0  0  0
 26 46  1  0  0  0  0
 27 47  1  0  0  0  0
 27 48  1  0  0  0  0
 27 49  1  0  0  0  0
M  END
> <PUBCHEM_COMPOUND_CID>
1794428

> <PUBCHEM_CONFORMER_RMSD>
0.8

> <PUBCHEM_CONFORMER_DIVERSEORDER>
1
40
38
112
78
75
118
15
137
134
36
121
138
64
128
10
132
6
140
124
43
39
133
26
111
116
120
48
135
5
83
42
11
27
53
130
106
123
82
62
126
129
68
72
54
57
125
28
20
90
14
77
80
3
87
41
58
122
74
32
25
21
37
65
79
96
94
18
7
56
88
114
29
49
136
95
108
16
70
63
55
73
17
47
30
22
24
4
115
117
103
113
76
86
85
2
99
9
119
127
13
52
107
110
69
31
98
46
139
51
8
84
100
105
104
131
34
91
12
81
35
71
102
101
44
92
19
33
50
23
60
67
109
59
93
97
66
89
61
45

> <PUBCHEM_MMFF94_PARTIAL_CHARGES>
38
1 -0.28
10 0.43
11 0.05
12 -0.14
13 -0.15
14 -0.15
15 -0.14
16 -0.15
17 -0.15
18 -0.15
19 -0.15
2 -0.36
20 0.08
21 -0.15
22 -0.15
23 0.14
24 -0.15
25 -0.15
26 0.28
3 -0.87
30 0.15
31 0.4
32 0.15
33 0.15
34 0.15
35 0.15
36 0.15
37 0.15
38 0.15
39 0.15
4 -0.57
43 0.15
44 0.15
5 0.1
6 0.23
7 0.14
8 0.51
9 -0.15

> <PUBCHEM_EFFECTIVE_ROTOR_COUNT>
6

> <PUBCHEM_PHARMACOPHORE_FEATURES>
7
1 2 acceptor
1 3 cation
1 3 donor
5 1 4 6 7 10 rings
6 11 15 18 19 24 25 rings
6 12 16 17 20 21 22 rings
6 5 6 7 9 13 14 rings

> <PUBCHEM_HEAVY_ATOM_COUNT>
27

> <PUBCHEM_ATOM_DEF_STEREO_COUNT>
0

> <PUBCHEM_ATOM_UDEF_STEREO_COUNT>
0

> <PUBCHEM_BOND_DEF_STEREO_COUNT>
0

> <PUBCHEM_BOND_UDEF_STEREO_COUNT>
0

> <PUBCHEM_ISOTOPIC_ATOM_COUNT>
0

> <PUBCHEM_COMPONENT_COUNT>
1

> <PUBCHEM_CACTVS_TAUTO_COUNT>
1

> <PUBCHEM_CONFORMER_ID>
001B617C00000001

> <PUBCHEM_MMFF94_ENERGY>
83.9438

> <PUBCHEM_FEATURE_SELFOVERLAP>
35.64

> <PUBCHEM_SHAPE_FINGERPRINT>
10050765 1 18124033416859451334
10299344 5 17822008713696398387
11315181 36 18407762543163530809
11408170 108 17203615874335151159
11524674 6 17703789254355474239
11963148 33 18411974775983308038
12089408 11 18261114046222279636
12166972 35 17894350007514990732
12236239 1 17894629244765701568
12516196 113 18201718461864132633
12643181 29 18408885161778954947
13631057 29 18410856538392112152
13673619 4 17775846813553453376
13685833 64 18272650164395203001
13885169 127 18410855439265547373
14068700 675 18260831505456143197
14150022 121 16486982756334724785
14202775 3 18272094847786441326
14251764 46 17203609285053205023
14344974 52 13262688066714125879
15183329 4 15430028864304156713
15419008 47 17774997981786675816
15419008 91 18267562719910195305
15461852 350 18187086131394457508
15510794 2 17775288223096812622
155225 1 8358265839388854263
15840311 113 18040438824618337156
15849732 13 18059853982764509317
16087824 20 18338233745030798957
1754911 235 17458067075780403454
17686467 74 18411979187758213680
18006028 8 18201717362516190937
18335252 98 18060140921335369606
18608769 82 18202563990891211542
20554085 129 12468632876726961820
21150785 3 17240481411843695196
21267235 1 18342176678239251873
21360443 120 17240480295290037851
21756936 100 9151169840602342121
22224240 67 16200429182448611638
23198884 109 15864067664096955213
232437 2 18411700984702180238
23522609 53 18118715216824839269
23559900 14 18263920120198016785
246663 6 17704355464030095854
249057 3 16008754627540246578
249999 5 18055628675190727272
3004659 81 18186799210014288097
335352 9 18408597064489720613
3383291 50 18272089435552446331
4017518 198 17489586766855820807
4098825 35 16660913388588819437
4325135 7 18113618980444921334
5283156 175 18259984856006432962
5385378 56 9655308029081355524
54039377 194 18261397784567926547
58902169 19 16950851396055496302
5937810 71 13840529741551579215
59521270 166 18187925041797428685
59682541 35 17917425445926529768
636775 8 18336272313704335858
67123 10 18409449194469745212
9663363 56 18272645749058091701
9962374 69 17560508603719891044

> <PUBCHEM_SHAPE_MULTIPOLES>
533.95
29.39
1.9
0.95
32.99
0.41
0.04
-14.18
-5.56
-3.16
0.41
1.1
-0.09
0.53

> <PUBCHEM_SHAPE_SELFOVERLAP>
1174.014

> <PUBCHEM_SHAPE_VOLUME>
291.3

> <PUBCHEM_COORDINATE_TYPE>
2
5
10

$$$$
