101416459
  -OEChem-02172602463D

 27 29  0     1  0  0  0  0  0999 V2000
   -0.9696   -2.1516    0.6524 O   0  0  0  0  0  0  0  0  0  0  0  0
   -2.4897    2.0634    0.1360 O   0  0  0  0  0  0  0  0  0  0  0  0
    4.5643    0.7894    0.1503 O   0  0  0  0  0  0  0  0  0  0  0  0
   -0.1650    1.7136    0.2157 N   0  0  0  0  0  0  0  0  0  0  0  0
   -0.7799   -1.1616   -0.3534 C   0  0  2  0  0  0  0  0  0  0  0  0
    0.6326   -0.5785   -0.2123 C   0  0  0  0  0  0  0  0  0  0  0  0
   -1.7616   -0.0495   -0.2161 C   0  0  0  0  0  0  0  0  0  0  0  0
    0.8973    0.7943    0.0693 C   0  0  0  0  0  0  0  0  0  0  0  0
   -1.4117    1.2524    0.0540 C   0  0  0  0  0  0  0  0  0  0  0  0
    1.7215   -1.4529   -0.3739 C   0  0  0  0  0  0  0  0  0  0  0  0
   -3.1754   -0.0403   -0.3171 C   0  0  0  0  0  0  0  0  0  0  0  0
    2.2218    1.2380    0.1903 C   0  0  0  0  0  0  0  0  0  0  0  0
    3.0334   -0.9934   -0.2516 C   0  0  0  0  0  0  0  0  0  0  0  0
   -3.5689    1.2631   -0.0935 C   0  0  0  0  0  0  0  0  0  0  0  0
    3.2825    0.3472    0.0315 C   0  0  0  0  0  0  0  0  0  0  0  0
   -2.0315   -3.0336    0.3185 C   0  0  0  0  0  0  0  0  0  0  0  0
   -0.8509   -1.5951   -1.3604 H   0  0  0  0  0  0  0  0  0  0  0  0
    0.0549    2.6816    0.4158 H   0  0  0  0  0  0  0  0  0  0  0  0
    1.5507   -2.5039   -0.5958 H   0  0  0  0  0  0  0  0  0  0  0  0
   -3.8388   -0.8623   -0.5411 H   0  0  0  0  0  0  0  0  0  0  0  0
    2.4210    2.2856    0.4060 H   0  0  0  0  0  0  0  0  0  0  0  0
    3.8586   -1.6891   -0.3786 H   0  0  0  0  0  0  0  0  0  0  0  0
   -4.5283    1.7590   -0.0708 H   0  0  0  0  0  0  0  0  0  0  0  0
   -1.9087   -3.9393    0.9206 H   0  0  0  0  0  0  0  0  0  0  0  0
   -2.0140   -3.3292   -0.7352 H   0  0  0  0  0  0  0  0  0  0  0  0
   -2.9975   -2.6031    0.5877 H   0  0  0  0  0  0  0  0  0  0  0  0
    4.5531    1.7419    0.3469 H   0  0  0  0  0  0  0  0  0  0  0  0
  1  5  1  0  0  0  0
  1 16  1  0  0  0  0
  2  9  1  0  0  0  0
  2 14  1  0  0  0  0
  3 15  1  0  0  0  0
  3 27  1  0  0  0  0
  4  8  1  0  0  0  0
  4  9  1  0  0  0  0
  4 18  1  0  0  0  0
  5  6  1  0  0  0  0
  5  7  1  0  0  0  0
  5 17  1  0  0  0  0
  6  8  2  0  0  0  0
  6 10  1  0  0  0  0
  7  9  2  0  0  0  0
  7 11  1  0  0  0  0
  8 12  1  0  0  0  0
 10 13  2  0  0  0  0
 10 19  1  0  0  0  0
 11 14  2  0  0  0  0
 11 20  1  0  0  0  0
 12 15  2  0  0  0  0
 12 21  1  0  0  0  0
 13 15  1  0  0  0  0
 13 22  1  0  0  0  0
 14 23  1  0  0  0  0
 16 24  1  0  0  0  0
 16 25  1  0  0  0  0
 16 26  1  0  0  0  0
M  END
> <PUBCHEM_COMPOUND_CID>
101416459

> <PUBCHEM_CONFORMER_RMSD>
0.6

> <PUBCHEM_CONFORMER_DIVERSEORDER>
1

> <PUBCHEM_MMFF94_PARTIAL_CHARGES>
23
1 -0.56
10 -0.15
11 -0.15
12 -0.15
13 -0.15
14 -0.01
15 0.08
16 0.28
18 0.4
19 0.15
2 -0.28
20 0.15
21 0.15
22 0.15
23 0.15
27 0.45
3 -0.53
4 -0.58
5 0.6
6 -0.14
7 -0.18
8 0.1
9 0.22

> <PUBCHEM_EFFECTIVE_ROTOR_COUNT>
1.4

> <PUBCHEM_PHARMACOPHORE_FEATURES>
8
1 1 acceptor
1 2 acceptor
1 3 donor
1 4 cation
1 4 donor
5 2 7 9 11 14 rings
6 4 5 6 7 8 9 rings
6 6 8 10 12 13 15 rings

> <PUBCHEM_HEAVY_ATOM_COUNT>
16

> <PUBCHEM_ATOM_DEF_STEREO_COUNT>
0

> <PUBCHEM_ATOM_UDEF_STEREO_COUNT>
1

> <PUBCHEM_BOND_DEF_STEREO_COUNT>
0

> <PUBCHEM_BOND_UDEF_STEREO_COUNT>
0

> <PUBCHEM_ISOTOPIC_ATOM_COUNT>
0

> <PUBCHEM_COMPONENT_COUNT>
1

> <PUBCHEM_CACTVS_TAUTO_COUNT>
13

> <PUBCHEM_CONFORMER_ID>
060B7E0B00000001

> <PUBCHEM_MMFF94_ENERGY>
45.6106

> <PUBCHEM_FEATURE_SELFOVERLAP>
40.732

> <PUBCHEM_SHAPE_FINGERPRINT>
10608611 8 18341328972207293752
10616163 171 18339363075544989430
10967382 1 18339080380454311446
11132069 177 18341324526842230896
11471102 20 18341888537520757692
11680986 33 18341058428117686222
12382932 28 18412545431296767010
12491281 212 17560809770873493657
12730499 353 17900534580982202525
13140716 1 18196092372301935081
13214271 11 18270395113697268206
13380535 21 18411429414109750310
13380535 76 18413105043939383902
13538477 17 18259974994529510394
13583140 156 16805316708466537953
14115302 16 18334587832162974332
14144814 61 18411136896598067792
14325111 11 18340486660147922308
15196674 1 18340768152288431076
15219456 202 18342745113134896486
15309172 13 18337680689615566433
15536298 74 18201436913941289844
15775835 57 18341051813477523773
16945 1 18410300223946625140
18186145 218 18266462001137172077
193761 8 18050287260761082517
20510252 161 18271808978018319865
20588541 1 18413108359601310852
20645476 183 18041862639254538726
20871998 184 18200317748269270215
21267235 1 18341057324026066182
21501502 16 18191310587610842092
2334 1 17835238230875295021
23402539 116 18340475742741658071
23402655 69 18201429225923963173
23419403 2 17272844570514070971
23463225 33 18337952290399205364
23557571 272 18270132330244487846
23559900 14 18341895161293900678
25 1 18268990890908357413
2748010 2 17908695486119928165
3312278 4 18411984701904630706
335352 9 18195809570449102054
5104073 3 18412543180670497160
528886 8 18413101758373629544
53812653 166 18272083894558759856
54173680 148 18265334087117741555
69090 78 18413102849263771687
7364860 26 17690842255429082479
81228 2 18116718611024178699
8809292 202 18410014346881845018
9709674 26 18343023298203659902

> <PUBCHEM_SHAPE_MULTIPOLES>
306.68
6.08
2.5
0.66
3.09
1.42
0.01
-1.64
0.09
-1.67
-0.36
-0.04
0.1
0.35

> <PUBCHEM_SHAPE_SELFOVERLAP>
682.132

> <PUBCHEM_SHAPE_VOLUME>
164.7

> <PUBCHEM_COORDINATE_TYPE>
2
5
10

$$$$
