129834431
  -OEChem-02172602563D

 24 25  0     0  0  0  0  0  0999 V2000
    0.7311    0.8093    1.7125 O   0  0  0  0  0  0  0  0  0  0  0  0
    1.4169   -2.0201   -0.1311 O   0  0  0  0  0  0  0  0  0  0  0  0
    3.1878   -0.0631   -1.2512 O   0  0  0  0  0  0  0  0  0  0  0  0
   -4.4056   -0.2100    0.1363 O   0  0  0  0  0  0  0  0  0  0  0  0
   -0.5326    0.9657    0.3603 C   0  0  0  0  0  0  0  0  0  0  0  0
    0.1945   -0.1640    0.8078 C   0  0  0  0  0  0  0  0  0  0  0  0
    0.6369    1.7231    0.6129 C   0  0  0  0  0  0  0  0  0  0  0  0
    1.2647   -0.6913    0.0471 C   0  0  0  0  0  0  0  0  0  0  0  0
    1.7940    1.5674   -0.1862 C   0  0  0  0  0  0  0  0  0  0  0  0
    2.1180    0.2562   -0.4937 C   0  0  0  0  0  0  0  0  0  0  0  0
   -1.3207    1.0252   -0.8497 C   0  0  0  0  0  0  0  0  0  0  0  0
   -2.4562    0.3244   -1.1016 C   0  0  0  0  0  0  0  0  0  0  0  0
   -3.0804   -0.6390   -0.1437 C   0  0  0  0  0  0  0  0  0  0  0  0
    0.4517   -2.8838    0.4803 C   0  0  0  0  0  0  0  0  0  0  0  0
    2.3649    2.4200   -0.5281 H   0  0  0  0  0  0  0  0  0  0  0  0
   -0.9761    1.7174   -1.6147 H   0  0  0  0  0  0  0  0  0  0  0  0
   -2.9529    0.4722   -2.0574 H   0  0  0  0  0  0  0  0  0  0  0  0
   -3.1279   -1.6308   -0.6046 H   0  0  0  0  0  0  0  0  0  0  0  0
   -2.5506   -0.7263    0.8073 H   0  0  0  0  0  0  0  0  0  0  0  0
    3.6376    0.7578   -1.5161 H   0  0  0  0  0  0  0  0  0  0  0  0
    0.7318   -3.9145    0.2438 H   0  0  0  0  0  0  0  0  0  0  0  0
   -0.5480   -2.7032    0.0720 H   0  0  0  0  0  0  0  0  0  0  0  0
    0.4602   -2.7725    1.5696 H   0  0  0  0  0  0  0  0  0  0  0  0
   -4.8018   -0.8726    0.7276 H   0  0  0  0  0  0  0  0  0  0  0  0
  1  6  1  0  0  0  0
  1  7  1  0  0  0  0
  2  8  1  0  0  0  0
  2 14  1  0  0  0  0
  3 10  1  0  0  0  0
  3 20  1  0  0  0  0
  4 13  1  0  0  0  0
  4 24  1  0  0  0  0
  5  6  1  0  0  0  0
  5  7  2  0  0  0  0
  5 11  1  0  0  0  0
  6  8  2  0  0  0  0
  7  9  1  0  0  0  0
  8 10  1  0  0  0  0
  9 10  2  0  0  0  0
  9 15  1  0  0  0  0
 11 12  2  0  0  0  0
 11 16  1  0  0  0  0
 12 13  1  0  0  0  0
 12 17  1  0  0  0  0
 13 18  1  0  0  0  0
 13 19  1  0  0  0  0
 14 21  1  0  0  0  0
 14 22  1  0  0  0  0
 14 23  1  0  0  0  0
M  END
> <PUBCHEM_COMPOUND_CID>
129834431

> <PUBCHEM_CONFORMER_RMSD>
0.6

> <PUBCHEM_CONFORMER_DIVERSEORDER>
1
28
31
18
10
27
2
7
11
6
25
26
21
24
19
30
13
12
5
23
9
29
3
15
17
20
4
8
22
16
14

> <PUBCHEM_MMFF94_PARTIAL_CHARGES>
19
1 -0.17
10 0.08
11 -0.18
12 -0.29
13 0.42
14 0.28
15 0.15
16 0.15
17 0.15
2 -0.36
20 0.45
24 0.4
3 -0.53
4 -0.68
5 0.03
6 0.08
7 0.08
8 0.08
9 -0.15

> <PUBCHEM_EFFECTIVE_ROTOR_COUNT>
3.2

> <PUBCHEM_PHARMACOPHORE_FEATURES>
6
1 1 acceptor
1 2 acceptor
1 3 donor
1 4 acceptor
1 4 donor
7 1 5 6 7 8 9 10 rings

> <PUBCHEM_HEAVY_ATOM_COUNT>
14

> <PUBCHEM_ATOM_DEF_STEREO_COUNT>
0

> <PUBCHEM_ATOM_UDEF_STEREO_COUNT>
0

> <PUBCHEM_BOND_DEF_STEREO_COUNT>
1

> <PUBCHEM_BOND_UDEF_STEREO_COUNT>
0

> <PUBCHEM_ISOTOPIC_ATOM_COUNT>
0

> <PUBCHEM_COMPONENT_COUNT>
1

> <PUBCHEM_CACTVS_TAUTO_COUNT>
4

> <PUBCHEM_CONFORMER_ID>
07BD1DBF00000001

> <PUBCHEM_MMFF94_ENERGY>
153.7668

> <PUBCHEM_FEATURE_SELFOVERLAP>
30.447

> <PUBCHEM_SHAPE_FINGERPRINT>
10064457 181 18124340408669774563
12138202 97 18046906262774748772
12423570 1 17325770275797722840
12897270 3 18333166167670155949
13299463 15 18335141964216253277
13380536 305 18337954609491751580
14128692 85 18052531067682775990
14344429 50 11095883804290115957
15001771 113 17908142079494083294
16945 1 18410291393594234228
20344682 6 18113628871374913180
20645477 70 18272639144115686007
20820808 20 18338518650403860704
21130352 189 9799700306707893127
21452121 199 17899956262701885531
23419403 2 16402584509969278052
2748010 2 17977672231344107210
3060560 45 18261666077640769837
5337951 7 17986955339377129360

> <PUBCHEM_SHAPE_MULTIPOLES>
264.64
4.51
2.16
1.12
4.9
1.69
0.1
0.18
-1.28
-0.92
0.31
-0.25
-0.22
0.21

> <PUBCHEM_SHAPE_SELFOVERLAP>
574.793

> <PUBCHEM_SHAPE_VOLUME>
149.8

> <PUBCHEM_COORDINATE_TYPE>
2
5
10

$$$$
