10891542
  -OEChem-02172602433D

 41 42  0     1  0  0  0  0  0999 V2000
   -0.1317   -1.9258    0.4881 Cl  0  0  0  0  0  0  0  0  0  0  0  0
    0.0591    0.6053    2.3785 O   0  0  0  0  0  0  0  0  0  0  0  0
    0.5477    0.6819    1.0375 C   0  0  2  0  0  0  0  0  0  0  0  0
   -0.3550   -0.1804    0.1285 C   0  0  2  0  0  0  0  0  0  0  0  0
    2.0459    0.3292    1.0128 C   0  0  0  0  0  0  0  0  0  0  0  0
   -1.8403    0.2089    0.2332 C   0  0  0  0  0  0  0  0  0  0  0  0
    2.6961    0.4863   -0.3715 C   0  0  0  0  0  0  0  0  0  0  0  0
   -2.7942   -0.6142   -0.6467 C   0  0  0  0  0  0  0  0  0  0  0  0
    4.1817    0.2266   -0.3811 C   0  0  0  0  0  0  0  0  0  0  0  0
   -4.2484   -0.2524   -0.4768 C   0  0  0  0  0  0  0  0  0  0  0  0
    5.0579    1.2775   -0.1557 C   0  0  0  0  0  0  0  0  0  0  0  0
    4.6468   -1.0587   -0.6146 C   0  0  0  0  0  0  0  0  0  0  0  0
   -5.0065   -0.9108    0.4796 C   0  0  0  0  0  0  0  0  0  0  0  0
   -4.8033    0.7332   -1.2792 C   0  0  0  0  0  0  0  0  0  0  0  0
    6.4319    1.0375   -0.1643 C   0  0  0  0  0  0  0  0  0  0  0  0
    6.0209   -1.2986   -0.6230 C   0  0  0  0  0  0  0  0  0  0  0  0
   -6.3514   -0.5762    0.6371 C   0  0  0  0  0  0  0  0  0  0  0  0
   -6.1483    1.0678   -1.1215 C   0  0  0  0  0  0  0  0  0  0  0  0
    6.9133   -0.2505   -0.3978 C   0  0  0  0  0  0  0  0  0  0  0  0
   -6.9222    0.4131   -0.1633 C   0  0  0  0  0  0  0  0  0  0  0  0
    0.4351    1.7289    0.7286 H   0  0  0  0  0  0  0  0  0  0  0  0
   -0.0447   -0.0528   -0.9137 H   0  0  0  0  0  0  0  0  0  0  0  0
    2.2141   -0.6814    1.4044 H   0  0  0  0  0  0  0  0  0  0  0  0
    2.5632    0.9851    1.7269 H   0  0  0  0  0  0  0  0  0  0  0  0
   -1.9454    1.2710   -0.0250 H   0  0  0  0  0  0  0  0  0  0  0  0
   -2.1710    0.1186    1.2764 H   0  0  0  0  0  0  0  0  0  0  0  0
    2.2210   -0.1918   -1.0907 H   0  0  0  0  0  0  0  0  0  0  0  0
    2.5048    1.4977   -0.7535 H   0  0  0  0  0  0  0  0  0  0  0  0
   -2.6895   -1.6861   -0.4427 H   0  0  0  0  0  0  0  0  0  0  0  0
   -2.5102   -0.4923   -1.7004 H   0  0  0  0  0  0  0  0  0  0  0  0
    0.6009    1.2013    2.9231 H   0  0  0  0  0  0  0  0  0  0  0  0
    4.6925    2.2836    0.0293 H   0  0  0  0  0  0  0  0  0  0  0  0
    3.9596   -1.8818   -0.7884 H   0  0  0  0  0  0  0  0  0  0  0  0
   -4.5705   -1.6808    1.1097 H   0  0  0  0  0  0  0  0  0  0  0  0
   -4.2082    1.2500   -2.0266 H   0  0  0  0  0  0  0  0  0  0  0  0
    7.1269    1.8533    0.0117 H   0  0  0  0  0  0  0  0  0  0  0  0
    6.3960   -2.3017   -0.8041 H   0  0  0  0  0  0  0  0  0  0  0  0
   -6.9540   -1.0853    1.3836 H   0  0  0  0  0  0  0  0  0  0  0  0
   -6.5928    1.8386   -1.7443 H   0  0  0  0  0  0  0  0  0  0  0  0
    7.9832   -0.4375   -0.4040 H   0  0  0  0  0  0  0  0  0  0  0  0
   -7.9693    0.6740   -0.0403 H   0  0  0  0  0  0  0  0  0  0  0  0
  1  4  1  0  0  0  0
  2  3  1  0  0  0  0
  2 31  1  0  0  0  0
  3  4  1  0  0  0  0
  3  5  1  0  0  0  0
  3 21  1  0  0  0  0
  4  6  1  0  0  0  0
  4 22  1  0  0  0  0
  5  7  1  0  0  0  0
  5 23  1  0  0  0  0
  5 24  1  0  0  0  0
  6  8  1  0  0  0  0
  6 25  1  0  0  0  0
  6 26  1  0  0  0  0
  7  9  1  0  0  0  0
  7 27  1  0  0  0  0
  7 28  1  0  0  0  0
  8 10  1  0  0  0  0
  8 29  1  0  0  0  0
  8 30  1  0  0  0  0
  9 11  2  0  0  0  0
  9 12  1  0  0  0  0
 10 13  2  0  0  0  0
 10 14  1  0  0  0  0
 11 15  1  0  0  0  0
 11 32  1  0  0  0  0
 12 16  2  0  0  0  0
 12 33  1  0  0  0  0
 13 17  1  0  0  0  0
 13 34  1  0  0  0  0
 14 18  2  0  0  0  0
 14 35  1  0  0  0  0
 15 19  2  0  0  0  0
 15 36  1  0  0  0  0
 16 19  1  0  0  0  0
 16 37  1  0  0  0  0
 17 20  2  0  0  0  0
 17 38  1  0  0  0  0
 18 20  1  0  0  0  0
 18 39  1  0  0  0  0
 19 40  1  0  0  0  0
 20 41  1  0  0  0  0
M  END
> <PUBCHEM_COMPOUND_CID>
10891542

> <PUBCHEM_CONFORMER_RMSD>
0.8

> <PUBCHEM_CONFORMER_DIVERSEORDER>
1
30
10
26
32
36
12
27
7
53
23
29
56
8
2
25
47
54
31
17
35
5
6
43
44
48
20
38
11
34
3
37
19
33
50
49
55
24
46
15
9
42
51
28
16
40
18
52
39
45
14
4
13
21
41
22

> <PUBCHEM_MMFF94_PARTIAL_CHARGES>
29
1 -0.29
10 -0.14
11 -0.15
12 -0.15
13 -0.15
14 -0.15
15 -0.15
16 -0.15
17 -0.15
18 -0.15
19 -0.15
2 -0.68
20 -0.15
3 0.28
31 0.4
32 0.15
33 0.15
34 0.15
35 0.15
36 0.15
37 0.15
38 0.15
39 0.15
4 0.29
40 0.15
41 0.15
7 0.14
8 0.14
9 -0.14

> <PUBCHEM_EFFECTIVE_ROTOR_COUNT>
7

> <PUBCHEM_PHARMACOPHORE_FEATURES>
4
1 2 acceptor
1 2 donor
6 10 13 14 17 18 20 rings
6 9 11 12 15 16 19 rings

> <PUBCHEM_HEAVY_ATOM_COUNT>
20

> <PUBCHEM_ATOM_DEF_STEREO_COUNT>
2

> <PUBCHEM_ATOM_UDEF_STEREO_COUNT>
0

> <PUBCHEM_BOND_DEF_STEREO_COUNT>
0

> <PUBCHEM_BOND_UDEF_STEREO_COUNT>
0

> <PUBCHEM_ISOTOPIC_ATOM_COUNT>
0

> <PUBCHEM_COMPONENT_COUNT>
1

> <PUBCHEM_CACTVS_TAUTO_COUNT>
1

> <PUBCHEM_CONFORMER_ID>
00A6311600000001

> <PUBCHEM_MMFF94_ENERGY>
46.7446

> <PUBCHEM_FEATURE_SELFOVERLAP>
20.297

> <PUBCHEM_SHAPE_FINGERPRINT>
10447042 23 17704353260775163830
10613725 11 17989205949484665829
106641 1 8214133058250812564
10670039 82 18335977572133018709
10730089 173 17894628141497443365
10835480 77 18271240646877168864
11045977 3 10447919581733856526
11315181 36 10519985976856300839
11646440 116 16515408460417377724
11724838 91 11674886606170932858
12091667 2 18040154033298878831
12516196 113 11815897859683493938
12596602 18 10375871878784156278
12670543 26 18342736299603347285
12916748 109 18040433291645313948
13177829 20 9943516419205054852
13533116 47 17703793583761395518
13590594 115 17060345128116030649
14251752 14 18413386518762957732
14251764 18 16272208604608717265
14933364 13 18113900463710918797
15119646 104 16988851531808358294
15183329 4 17275385404399187495
15716309 27 10809342248129277253
17834072 8 17846495946022578999
18006028 8 16128656349137647888
18222031 100 15123513631600212456
20157964 124 18411420622992073580
20281389 69 13406792242240640670
21236236 1 17632020754212610617
21315759 40 14779260925778166816
22224240 67 12685093700130939433
23035841 295 17749107794656437883
23198884 109 18113337501136313601
23522609 53 16700919239066429425
23536379 177 18334858311759571772
23559900 14 17702936066921379328
23622692 88 10087634909984271480
2767999 5 14707206630116749692
29717793 49 17847066571499367956
3004659 81 15410612614286530368
3009799 131 17775282768235151874
347723 3 18202002131278922746
4073 2 17822579420941180794
5104073 3 11531302405107850413
5385378 56 15430308093155624248
54446538 1 16877662378930105725
5486654 2 15502094155181831441
559249 180 15051728708098787765
5758199 1 15574433211063966537
59682541 35 12613044898429130293
59755656 215 18261110742527551710
59755656 520 15647050494895453586

> <PUBCHEM_SHAPE_MULTIPOLES>
407.59
21.08
1.34
1.21
0.69
0.27
0.51
-2.73
-5.24
-0.18
-0.15
0.13
-0.07
1.28

> <PUBCHEM_SHAPE_SELFOVERLAP>
832.942

> <PUBCHEM_SHAPE_VOLUME>
234.9

> <PUBCHEM_COORDINATE_TYPE>
2
5
10

$$$$
