10091873
  -OEChem-02172602443D

 60 62  0     1  0  0  0  0  0999 V2000
   -3.3272    0.7926   -0.1787 Si  0  0  0  0  0  0  0  0  0  0  0  0
   -1.7093    0.3914   -0.0189 O   0  0  0  0  0  0  0  0  0  0  0  0
    2.5963    3.7541    0.3024 O   0  0  0  0  0  0  0  0  0  0  0  0
    0.8725   -2.9176    0.0080 O   0  0  0  0  0  0  0  0  0  0  0  0
   -0.6131   -1.8321   -1.3598 O   0  0  0  0  0  0  0  0  0  0  0  0
    2.8361    0.7547    0.1445 N   0  0  0  0  0  0  0  0  0  0  0  0
   -0.7156    1.2607   -0.5547 C   0  0  2  0  0  0  0  0  0  0  0  0
    0.6614    0.7378   -0.3156 C   0  0  0  0  0  0  0  0  0  0  0  0
   -4.4354   -0.5182    0.5906 C   0  0  0  0  0  0  0  0  0  0  0  0
    1.7390    1.5636   -0.0306 C   0  0  0  0  0  0  0  0  0  0  0  0
    2.4883   -0.5612   -0.0721 C   0  0  0  0  0  0  0  0  0  0  0  0
   -0.8678    2.6495    0.0901 C   0  0  0  0  0  0  0  0  0  0  0  0
    1.1374   -0.5954   -0.3519 C   0  0  0  0  0  0  0  0  0  0  0  0
    4.1928    1.1910    0.4314 C   0  0  0  0  0  0  0  0  0  0  0  0
    3.4803   -1.6710    0.0358 C   0  0  0  0  0  0  0  0  0  0  0  0
    0.2798    3.5903   -0.2904 C   0  0  0  0  0  0  0  0  0  0  0  0
    5.1239    0.0470    0.8323 C   0  0  0  0  0  0  0  0  0  0  0  0
    4.9178   -1.1643   -0.0734 C   0  0  0  0  0  0  0  0  0  0  0  0
    1.6517    3.0100    0.0487 C   0  0  0  0  0  0  0  0  0  0  0  0
   -3.7047    2.4471    0.6328 C   0  0  0  0  0  0  0  0  0  0  0  0
   -3.7673    0.9269   -2.0059 C   0  0  0  0  0  0  0  0  0  0  0  0
   -4.2122   -1.8796   -0.1046 C   0  0  0  0  0  0  0  0  0  0  0  0
   -4.1163   -0.6703    2.0948 C   0  0  0  0  0  0  0  0  0  0  0  0
   -5.9194   -0.1186    0.4357 C   0  0  0  0  0  0  0  0  0  0  0  0
    0.3878   -1.7900   -0.6240 C   0  0  0  0  0  0  0  0  0  0  0  0
    0.1710   -4.1450   -0.2202 C   0  0  0  0  0  0  0  0  0  0  0  0
    0.8522   -5.2535    0.5537 C   0  0  0  0  0  0  0  0  0  0  0  0
   -0.8449    1.3386   -1.6439 H   0  0  0  0  0  0  0  0  0  0  0  0
   -1.7271    3.1760   -0.3075 H   0  0  0  0  0  0  0  0  0  0  0  0
   -0.9296    2.5770    1.1825 H   0  0  0  0  0  0  0  0  0  0  0  0
    4.5591    1.6797   -0.4788 H   0  0  0  0  0  0  0  0  0  0  0  0
    4.1499    1.9278    1.2396 H   0  0  0  0  0  0  0  0  0  0  0  0
    3.3139   -2.4157   -0.7506 H   0  0  0  0  0  0  0  0  0  0  0  0
    3.3456   -2.1736    1.0016 H   0  0  0  0  0  0  0  0  0  0  0  0
    0.2643    3.7989   -1.3668 H   0  0  0  0  0  0  0  0  0  0  0  0
    0.1648    4.5406    0.2432 H   0  0  0  0  0  0  0  0  0  0  0  0
    6.1650    0.3849    0.7860 H   0  0  0  0  0  0  0  0  0  0  0  0
    4.9258   -0.2412    1.8726 H   0  0  0  0  0  0  0  0  0  0  0  0
    5.1386   -0.8857   -1.1117 H   0  0  0  0  0  0  0  0  0  0  0  0
    5.6140   -1.9646    0.2011 H   0  0  0  0  0  0  0  0  0  0  0  0
   -3.0996    2.6314    1.5235 H   0  0  0  0  0  0  0  0  0  0  0  0
   -3.6483    3.2891   -0.0622 H   0  0  0  0  0  0  0  0  0  0  0  0
   -4.7422    2.4530    0.9808 H   0  0  0  0  0  0  0  0  0  0  0  0
   -3.5501   -0.0090   -2.5282 H   0  0  0  0  0  0  0  0  0  0  0  0
   -4.8262    1.1634   -2.1410 H   0  0  0  0  0  0  0  0  0  0  0  0
   -3.1844    1.7224   -2.4798 H   0  0  0  0  0  0  0  0  0  0  0  0
   -3.1719   -2.2158   -0.0201 H   0  0  0  0  0  0  0  0  0  0  0  0
   -4.8397   -2.6550    0.3512 H   0  0  0  0  0  0  0  0  0  0  0  0
   -4.4675   -1.8462   -1.1702 H   0  0  0  0  0  0  0  0  0  0  0  0
   -4.2843    0.2624    2.6466 H   0  0  0  0  0  0  0  0  0  0  0  0
   -3.0752   -0.9725    2.2619 H   0  0  0  0  0  0  0  0  0  0  0  0
   -4.7542   -1.4362    2.5522 H   0  0  0  0  0  0  0  0  0  0  0  0
   -6.2106    0.0066   -0.6133 H   0  0  0  0  0  0  0  0  0  0  0  0
   -6.5684   -0.8997    0.8514 H   0  0  0  0  0  0  0  0  0  0  0  0
   -6.1676    0.8054    0.9679 H   0  0  0  0  0  0  0  0  0  0  0  0
   -0.8659   -4.0388    0.1172 H   0  0  0  0  0  0  0  0  0  0  0  0
    0.1840   -4.3770   -1.2908 H   0  0  0  0  0  0  0  0  0  0  0  0
    0.3416   -6.2084    0.4009 H   0  0  0  0  0  0  0  0  0  0  0  0
    1.8964   -5.3561    0.2405 H   0  0  0  0  0  0  0  0  0  0  0  0
    0.8628   -5.0252    1.6246 H   0  0  0  0  0  0  0  0  0  0  0  0
  1  2  1  0  0  0  0
  1  9  1  0  0  0  0
  1 20  1  0  0  0  0
  1 21  1  0  0  0  0
  2  7  1  0  0  0  0
  3 19  2  0  0  0  0
  4 25  1  0  0  0  0
  4 26  1  0  0  0  0
  5 25  2  0  0  0  0
  6 10  1  0  0  0  0
  6 11  1  0  0  0  0
  6 14  1  0  0  0  0
  7  8  1  0  0  0  0
  7 12  1  0  0  0  0
  7 28  1  0  0  0  0
  8 10  2  0  0  0  0
  8 13  1  0  0  0  0
  9 22  1  0  0  0  0
  9 23  1  0  0  0  0
  9 24  1  0  0  0  0
 10 19  1  0  0  0  0
 11 13  2  0  0  0  0
 11 15  1  0  0  0  0
 12 16  1  0  0  0  0
 12 29  1  0  0  0  0
 12 30  1  0  0  0  0
 13 25  1  0  0  0  0
 14 17  1  0  0  0  0
 14 31  1  0  0  0  0
 14 32  1  0  0  0  0
 15 18  1  0  0  0  0
 15 33  1  0  0  0  0
 15 34  1  0  0  0  0
 16 19  1  0  0  0  0
 16 35  1  0  0  0  0
 16 36  1  0  0  0  0
 17 18  1  0  0  0  0
 17 37  1  0  0  0  0
 17 38  1  0  0  0  0
 18 39  1  0  0  0  0
 18 40  1  0  0  0  0
 20 41  1  0  0  0  0
 20 42  1  0  0  0  0
 20 43  1  0  0  0  0
 21 44  1  0  0  0  0
 21 45  1  0  0  0  0
 21 46  1  0  0  0  0
 22 47  1  0  0  0  0
 22 48  1  0  0  0  0
 22 49  1  0  0  0  0
 23 50  1  0  0  0  0
 23 51  1  0  0  0  0
 23 52  1  0  0  0  0
 24 53  1  0  0  0  0
 24 54  1  0  0  0  0
 24 55  1  0  0  0  0
 26 27  1  0  0  0  0
 26 56  1  0  0  0  0
 26 57  1  0  0  0  0
 27 58  1  0  0  0  0
 27 59  1  0  0  0  0
 27 60  1  0  0  0  0
M  END
> <PUBCHEM_COMPOUND_CID>
10091873

> <PUBCHEM_CONFORMER_RMSD>
0.8

> <PUBCHEM_CONFORMER_DIVERSEORDER>
1
6
15
7
13
14
9
5
16
2
11
12
10
4
3
8

> <PUBCHEM_MMFF94_PARTIAL_CHARGES>
20
1 0.54
10 -0.24
11 -0.33
13 -0.09
14 0.26
15 0.18
16 0.06
19 0.59
2 -0.58
20 -0.08
21 -0.08
25 0.81
26 0.28
3 -0.57
4 -0.43
5 -0.57
6 0.05
7 0.46
8 -0.18
9 -0.08

> <PUBCHEM_EFFECTIVE_ROTOR_COUNT>
7.4

> <PUBCHEM_PHARMACOPHORE_FEATURES>
7
1 3 acceptor
1 5 acceptor
1 6 cation
4 9 22 23 24 hydrophobe
5 6 8 10 11 13 rings
6 6 11 14 15 17 18 rings
6 7 8 10 12 16 19 rings

> <PUBCHEM_HEAVY_ATOM_COUNT>
27

> <PUBCHEM_ATOM_DEF_STEREO_COUNT>
0

> <PUBCHEM_ATOM_UDEF_STEREO_COUNT>
1

> <PUBCHEM_BOND_DEF_STEREO_COUNT>
0

> <PUBCHEM_BOND_UDEF_STEREO_COUNT>
0

> <PUBCHEM_ISOTOPIC_ATOM_COUNT>
0

> <PUBCHEM_COMPONENT_COUNT>
1

> <PUBCHEM_CACTVS_TAUTO_COUNT>
2

> <PUBCHEM_CONFORMER_ID>
0099FD6100000001

> <PUBCHEM_MMFF94_ENERGY>
53.408

> <PUBCHEM_FEATURE_SELFOVERLAP>
35.689

> <PUBCHEM_SHAPE_FINGERPRINT>
10967382 1 18412256255797479724
1100329 8 18267862968277562144
11227688 84 18196359321593879607
11578080 2 16664582316619139822
12035758 1 18411692223469738512
12236239 1 17489868254606064733
12553582 1 18122623855890233549
12633257 1 18337969956053205979
12839892 36 18265882588885549610
13140716 1 18340206388094123549
13402501 40 18260832596698946299
13583140 156 17895176814715523017
13911987 19 18334855009220067164
14178342 30 18270691844124189841
14223421 5 18122343471645273063
14341114 176 18412832386720565977
14466204 15 18410007702514619442
14787075 74 18113623395702774688
14790565 3 18410863157306389420
14844126 61 16533417039346751179
14955137 171 18412270523441122388
15475509 84 17614570666697524259
15927050 60 18051697947470713588
16728300 4 17607499385850248218
19591789 44 18339922602646807190
20028762 73 18200872988899339935
20261772 1 18343580754698477214
20511986 3 17775279436015783057
20739085 24 18336277811368301165
21033648 29 17917130737491221824
21197605 99 18051703432244722939
21421861 104 17757838827144813938
23558518 356 17838045266917983695
23559900 14 18409721868679301393
3178227 256 18410020939661711627
350125 39 18338800121080400925
3737641 26 18124323696398085342
3882209 13 17180488548982844563
3886686 26 16603756135839613154
392239 28 18342176674044349195
5104073 3 18270112414439094696
5309563 4 18267024955570475503
59755656 215 18049442539557140436

> <PUBCHEM_SHAPE_MULTIPOLES>
545.4
9.97
5.11
1.12
3.24
3.9
-0.01
0.36
2.42
-2.64
0.3
1.26
0.12
0.54

> <PUBCHEM_SHAPE_SELFOVERLAP>
1125.781

> <PUBCHEM_SHAPE_VOLUME>
318.8

> <PUBCHEM_COORDINATE_TYPE>
2
5
10

$$$$
