124845081
  -OEChem-02172602353D

 79 82  0     1  0  0  0  0  0999 V2000
    7.6811    0.5487    1.6012 O   0  0  0  0  0  0  0  0  0  0  0  0
   -9.8228   -0.0504    0.2987 O   0  0  0  0  0  0  0  0  0  0  0  0
   -8.7167   -2.0242    0.1056 O   0  0  0  0  0  0  0  0  0  0  0  0
    0.1822   -0.7886   -0.1008 C   0  0  2  0  0  0  0  0  0  0  0  0
   -0.4739    0.5861   -0.4764 C   0  0  1  0  0  0  0  0  0  0  0  0
    1.6859   -0.7708   -0.5296 C   0  0  1  0  0  0  0  0  0  0  0  0
   -1.9765    0.2918   -0.2415 C   0  0  2  0  0  0  0  0  0  0  0  0
   -0.7276   -1.7701   -0.8592 C   0  0  0  0  0  0  0  0  0  0  0  0
    3.9320    0.5879   -0.3040 C   0  0  2  0  0  0  0  0  0  0  0  0
    2.3899    0.5317   -0.0758 C   0  0  0  0  0  0  0  0  0  0  0  0
   -2.1433   -1.1610   -0.7532 C   0  0  0  0  0  0  0  0  0  0  0  0
    4.5778   -0.7353    0.2498 C   0  0  1  0  0  0  0  0  0  0  0  0
    0.1540    1.6633    0.4208 C   0  0  0  0  0  0  0  0  0  0  0  0
    2.4424   -2.0302   -0.0743 C   0  0  0  0  0  0  0  0  0  0  0  0
    3.9313   -1.9781   -0.3987 C   0  0  0  0  0  0  0  0  0  0  0  0
    0.0631   -1.1385    1.4215 C   0  0  0  0  0  0  0  0  0  0  0  0
    1.6677    1.5823    0.3883 C   0  0  0  0  0  0  0  0  0  0  0  0
   -2.9810    1.2525   -0.8675 C   0  0  1  0  0  0  0  0  0  0  0  0
   -0.2620    1.0094   -1.9663 C   0  0  0  0  0  0  0  0  0  0  0  0
    6.1465   -0.8051    0.2884 C   0  0  0  0  0  0  0  0  0  0  0  0
    4.6036    1.7816    0.4313 C   0  0  0  0  0  0  0  0  0  0  0  0
    4.1064    0.8008   -1.8286 C   0  0  0  0  0  0  0  0  0  0  0  0
    6.1202    1.7996    0.3265 C   0  0  0  0  0  0  0  0  0  0  0  0
    6.7128    0.5132    0.8388 C   0  0  0  0  0  0  0  0  0  0  0  0
   -4.3883    0.6366   -1.0039 C   0  0  0  0  0  0  0  0  0  0  0  0
   -3.0644    2.5360   -0.0345 C   0  0  0  0  0  0  0  0  0  0  0  0
    6.8173   -1.0880   -1.0639 C   0  0  0  0  0  0  0  0  0  0  0  0
    6.5852   -1.9345    1.2578 C   0  0  0  0  0  0  0  0  0  0  0  0
   -4.9859    0.1870    0.3325 C   0  0  0  0  0  0  0  0  0  0  0  0
   -6.3440   -0.4314    0.1373 C   0  0  0  0  0  0  0  0  0  0  0  0
   -7.5099   -0.0044    0.6574 C   0  0  0  0  0  0  0  0  0  0  0  0
   -7.6924    1.2245    1.4981 C   0  0  0  0  0  0  0  0  0  0  0  0
   -8.7106   -0.8225    0.3244 C   0  0  0  0  0  0  0  0  0  0  0  0
    1.7243   -0.7856   -1.6267 H   0  0  0  0  0  0  0  0  0  0  0  0
   -2.1692    0.2815    0.8381 H   0  0  0  0  0  0  0  0  0  0  0  0
   -0.7003   -2.7867   -0.4525 H   0  0  0  0  0  0  0  0  0  0  0  0
   -0.4345   -1.8454   -1.9131 H   0  0  0  0  0  0  0  0  0  0  0  0
   -2.5960   -1.2217   -1.7474 H   0  0  0  0  0  0  0  0  0  0  0  0
   -2.7518   -1.7580   -0.0670 H   0  0  0  0  0  0  0  0  0  0  0  0
    4.2784   -0.7630    1.3118 H   0  0  0  0  0  0  0  0  0  0  0  0
   -0.1879    1.5861    1.4588 H   0  0  0  0  0  0  0  0  0  0  0  0
   -0.1268    2.6631    0.0743 H   0  0  0  0  0  0  0  0  0  0  0  0
    2.3590   -2.1740    1.0082 H   0  0  0  0  0  0  0  0  0  0  0  0
    2.0017   -2.9167   -0.5458 H   0  0  0  0  0  0  0  0  0  0  0  0
    4.3798   -2.9001   -0.0174 H   0  0  0  0  0  0  0  0  0  0  0  0
    4.0810   -1.9910   -1.4829 H   0  0  0  0  0  0  0  0  0  0  0  0
    0.7438   -0.5449    2.0397 H   0  0  0  0  0  0  0  0  0  0  0  0
    0.2989   -2.1939    1.5998 H   0  0  0  0  0  0  0  0  0  0  0  0
   -0.9417   -0.9991    1.8267 H   0  0  0  0  0  0  0  0  0  0  0  0
    2.1584    2.4965    0.7053 H   0  0  0  0  0  0  0  0  0  0  0  0
   -2.7004    1.5282   -1.8879 H   0  0  0  0  0  0  0  0  0  0  0  0
   -0.7493    0.3270   -2.6697 H   0  0  0  0  0  0  0  0  0  0  0  0
    0.7909    1.0632   -2.2548 H   0  0  0  0  0  0  0  0  0  0  0  0
   -0.6575    2.0150   -2.1495 H   0  0  0  0  0  0  0  0  0  0  0  0
    4.3334    1.7507    1.4961 H   0  0  0  0  0  0  0  0  0  0  0  0
    4.2347    2.7364    0.0355 H   0  0  0  0  0  0  0  0  0  0  0  0
    5.1356    1.0066   -2.1204 H   0  0  0  0  0  0  0  0  0  0  0  0
    3.5233    1.6680   -2.1656 H   0  0  0  0  0  0  0  0  0  0  0  0
    3.7684   -0.0539   -2.4212 H   0  0  0  0  0  0  0  0  0  0  0  0
    6.5080    2.6249    0.9352 H   0  0  0  0  0  0  0  0  0  0  0  0
    6.4676    1.9672   -0.6963 H   0  0  0  0  0  0  0  0  0  0  0  0
   -5.0543    1.3902   -1.4482 H   0  0  0  0  0  0  0  0  0  0  0  0
   -4.3925   -0.1907   -1.7217 H   0  0  0  0  0  0  0  0  0  0  0  0
   -2.1846    3.1634   -0.1937 H   0  0  0  0  0  0  0  0  0  0  0  0
   -3.1465    2.3389    1.0392 H   0  0  0  0  0  0  0  0  0  0  0  0
   -3.9284    3.1413   -0.3314 H   0  0  0  0  0  0  0  0  0  0  0  0
    6.6757   -0.2855   -1.7874 H   0  0  0  0  0  0  0  0  0  0  0  0
    7.9033   -1.1883   -0.9417 H   0  0  0  0  0  0  0  0  0  0  0  0
    6.4569   -2.0196   -1.5112 H   0  0  0  0  0  0  0  0  0  0  0  0
    6.1522   -1.7912    2.2546 H   0  0  0  0  0  0  0  0  0  0  0  0
    7.6747   -1.9566    1.3823 H   0  0  0  0  0  0  0  0  0  0  0  0
    6.2940   -2.9258    0.8987 H   0  0  0  0  0  0  0  0  0  0  0  0
   -4.3607   -0.5648    0.8210 H   0  0  0  0  0  0  0  0  0  0  0  0
   -5.0298    1.0345    1.0186 H   0  0  0  0  0  0  0  0  0  0  0  0
   -6.3352   -1.3330   -0.4743 H   0  0  0  0  0  0  0  0  0  0  0  0
   -8.0859    2.0454    0.8900 H   0  0  0  0  0  0  0  0  0  0  0  0
   -8.4021    1.0271    2.3094 H   0  0  0  0  0  0  0  0  0  0  0  0
   -6.7721    1.5646    1.9772 H   0  0  0  0  0  0  0  0  0  0  0  0
  -10.6260   -0.5706    0.0832 H   0  0  0  0  0  0  0  0  0  0  0  0
  1 24  2  0  0  0  0
  2 33  1  0  0  0  0
  2 79  1  0  0  0  0
  3 33  2  0  0  0  0
  4  5  1  0  0  0  0
  4  6  1  0  0  0  0
  4  8  1  0  0  0  0
  4 16  1  0  0  0  0
  5  7  1  0  0  0  0
  5 13  1  0  0  0  0
  5 19  1  0  0  0  0
  6 10  1  0  0  0  0
  6 14  1  0  0  0  0
  6 34  1  0  0  0  0
  7 11  1  0  0  0  0
  7 18  1  0  0  0  0
  7 35  1  0  0  0  0
  8 11  1  0  0  0  0
  8 36  1  0  0  0  0
  8 37  1  0  0  0  0
  9 10  1  0  0  0  0
  9 12  1  0  0  0  0
  9 21  1  0  0  0  0
  9 22  1  0  0  0  0
 10 17  2  0  0  0  0
 11 38  1  0  0  0  0
 11 39  1  0  0  0  0
 12 15  1  0  0  0  0
 12 20  1  0  0  0  0
 12 40  1  0  0  0  0
 13 17  1  0  0  0  0
 13 41  1  0  0  0  0
 13 42  1  0  0  0  0
 14 15  1  0  0  0  0
 14 43  1  0  0  0  0
 14 44  1  0  0  0  0
 15 45  1  0  0  0  0
 15 46  1  0  0  0  0
 16 47  1  0  0  0  0
 16 48  1  0  0  0  0
 16 49  1  0  0  0  0
 17 50  1  0  0  0  0
 18 25  1  0  0  0  0
 18 26  1  0  0  0  0
 18 51  1  0  0  0  0
 19 52  1  0  0  0  0
 19 53  1  0  0  0  0
 19 54  1  0  0  0  0
 20 24  1  0  0  0  0
 20 27  1  0  0  0  0
 20 28  1  0  0  0  0
 21 23  1  0  0  0  0
 21 55  1  0  0  0  0
 21 56  1  0  0  0  0
 22 57  1  0  0  0  0
 22 58  1  0  0  0  0
 22 59  1  0  0  0  0
 23 24  1  0  0  0  0
 23 60  1  0  0  0  0
 23 61  1  0  0  0  0
 25 29  1  0  0  0  0
 25 62  1  0  0  0  0
 25 63  1  0  0  0  0
 26 64  1  0  0  0  0
 26 65  1  0  0  0  0
 26 66  1  0  0  0  0
 27 67  1  0  0  0  0
 27 68  1  0  0  0  0
 27 69  1  0  0  0  0
 28 70  1  0  0  0  0
 28 71  1  0  0  0  0
 28 72  1  0  0  0  0
 29 30  1  0  0  0  0
 29 73  1  0  0  0  0
 29 74  1  0  0  0  0
 30 31  2  0  0  0  0
 30 75  1  0  0  0  0
 31 32  1  0  0  0  0
 31 33  1  0  0  0  0
 32 76  1  0  0  0  0
 32 77  1  0  0  0  0
 32 78  1  0  0  0  0
M  END
> <PUBCHEM_COMPOUND_CID>
124845081

> <PUBCHEM_CONFORMER_RMSD>
1

> <PUBCHEM_CONFORMER_DIVERSEORDER>
1
15
10
7
5
8
17
14
11
9
2
4
12
16
3
13
6

> <PUBCHEM_MMFF94_PARTIAL_CHARGES>
19
1 -0.57
10 -0.28
13 0.14
17 -0.29
2 -0.65
20 0.06
23 0.06
24 0.45
29 0.14
3 -0.57
30 -0.29
31 -0.12
32 0.14
33 0.71
50 0.15
6 0.14
75 0.15
79 0.5
9 0.14

> <PUBCHEM_EFFECTIVE_ROTOR_COUNT>
6.8

> <PUBCHEM_PHARMACOPHORE_FEATURES>
12
1 1 acceptor
1 2 acceptor
1 26 hydrophobe
1 3 acceptor
1 32 hydrophobe
3 2 3 33 anion
3 20 27 28 hydrophobe
4 18 25 29 30 hydrophobe
5 4 5 7 8 11 rings
6 4 5 6 10 13 17 rings
6 6 9 10 12 14 15 rings
6 9 12 20 21 23 24 rings

> <PUBCHEM_HEAVY_ATOM_COUNT>
33

> <PUBCHEM_ATOM_DEF_STEREO_COUNT>
7

> <PUBCHEM_ATOM_UDEF_STEREO_COUNT>
0

> <PUBCHEM_BOND_DEF_STEREO_COUNT>
1

> <PUBCHEM_BOND_UDEF_STEREO_COUNT>
0

> <PUBCHEM_ISOTOPIC_ATOM_COUNT>
0

> <PUBCHEM_COMPONENT_COUNT>
1

> <PUBCHEM_CACTVS_TAUTO_COUNT>
2

> <PUBCHEM_CONFORMER_ID>
0770FC1900000001

> <PUBCHEM_MMFF94_ENERGY>
126.2612

> <PUBCHEM_FEATURE_SELFOVERLAP>
61.054

> <PUBCHEM_SHAPE_FINGERPRINT>
10 15 18260546757908940248
10050765 1 18122908625581490341
10100884 174 18125434474934049703
10299344 5 18342459249144506551
106641 1 18272651268887476795
10816530 90 14548728539112242058
11135609 187 10446485857997082410
11135926 11 18261383456726163623
11181472 205 13254813321022396611
11456790 92 17989200422151920106
11578080 2 16986854968857761018
12011746 2 9799689325009208828
13073987 5 18341892926935187928
13692114 37 17967532397906653402
13782708 43 17823132333371369074
13811026 1 17894905227202246037
14028597 1 17775008942764332331
14251764 18 18060136557331981589
14849402 71 18130507535025190961
14856354 85 16128368303552181461
15247644 1 16443062798944419155
15301273 46 17894344471839793605
15461852 350 14129054803856348399
15510794 2 18113901581584142219
15840311 113 18412830213208684028
18608769 82 18411979191757053939
20105231 36 18272657805764996086
21130935 74 18266457616055138914
21267235 1 18341052930580256750
21521721 280 18341894108056203050
21781051 124 17968391120481739091
21792934 111 18335134285237091397
22149856 69 18200605700372966625
22224240 67 18411139139114536107
22956985 138 14781487316675924736
23522609 53 18121250695334261285
23559900 14 18272364266725543588
23569917 315 18261678073691279650
23569943 247 17244692365981154410
3009799 131 11024107642458554309
3178227 256 18341894103845755073
34797466 226 17632859724929460524
4073 2 18261960760090938619
4093350 32 16774082856044354580
4340502 62 18113617880738277050
45266715 3 14201392738414514161
4625314 4 17385725829285794013
5104073 3 18264487282670206961
59682541 35 18410855490736284803
6081469 158 14273450375422796959
6126387 218 18408040690342479149

> <PUBCHEM_SHAPE_MULTIPOLES>
661.52
25.06
2.15
1.3
41.65
0.01
0.15
-4.39
-8.46
-0.96
-0.09
-0.71
0.13
-0.04

> <PUBCHEM_SHAPE_SELFOVERLAP>
1390.175

> <PUBCHEM_SHAPE_VOLUME>
372

> <PUBCHEM_COORDINATE_TYPE>
2
5
10

$$$$
