72506
  -OEChem-02172602273D

 46 49  0     1  0  0  0  0  0999 V2000
   -1.3730    3.8057    0.7063 O   0  0  0  0  0  0  0  0  0  0  0  0
   -3.4105    3.0894   -0.0748 O   0  0  0  0  0  0  0  0  0  0  0  0
   -3.6818   -3.1234   -0.0478 O   0  0  0  0  0  0  0  0  0  0  0  0
   -1.8653   -3.1313    2.0560 O   0  0  0  0  0  0  0  0  0  0  0  0
    3.8751   -0.9892   -1.8282 O   0  0  0  0  0  0  0  0  0  0  0  0
    5.4351   -0.8411    0.4677 O   0  0  0  0  0  0  0  0  0  0  0  0
   -0.0064    2.3035   -0.4624 C   0  0  2  0  0  0  0  0  0  0  0  0
   -1.3392    2.4171   -1.1823 C   0  0  1  0  0  0  0  0  0  0  0  0
    0.1075    1.0923    0.5182 C   0  0  1  0  0  0  0  0  0  0  0  0
   -1.8809    1.1014   -1.7092 C   0  0  0  0  0  0  0  0  0  0  0  0
   -0.0082    3.6210    0.3033 C   0  0  0  0  0  0  0  0  0  0  0  0
   -0.9175   -0.0193    0.3431 C   0  0  0  0  0  0  0  0  0  0  0  0
   -1.8588   -0.0050   -0.6955 C   0  0  0  0  0  0  0  0  0  0  0  0
   -2.1922    3.1062   -0.1432 C   0  0  0  0  0  0  0  0  0  0  0  0
    1.5434    0.5708    0.5014 C   0  0  0  0  0  0  0  0  0  0  0  0
   -0.9478   -1.0795    1.2697 C   0  0  0  0  0  0  0  0  0  0  0  0
   -2.7728   -1.0641   -0.8214 C   0  0  0  0  0  0  0  0  0  0  0  0
    2.0604    0.0245   -0.6664 C   0  0  0  0  0  0  0  0  0  0  0  0
    2.3148    0.6482    1.6538 C   0  0  0  0  0  0  0  0  0  0  0  0
   -1.8693   -2.1187    1.1454 C   0  0  0  0  0  0  0  0  0  0  0  0
   -2.7792   -2.1138    0.0950 C   0  0  0  0  0  0  0  0  0  0  0  0
    3.3711   -0.4523   -0.6820 C   0  0  0  0  0  0  0  0  0  0  0  0
    3.6255    0.1712    1.6382 C   0  0  0  0  0  0  0  0  0  0  0  0
    4.1536   -0.3791    0.4703 C   0  0  0  0  0  0  0  0  0  0  0  0
   -3.2831   -4.2431   -0.8365 C   0  0  0  0  0  0  0  0  0  0  0  0
    3.6997   -2.3917   -2.0186 C   0  0  0  0  0  0  0  0  0  0  0  0
    0.8137    2.3080   -1.1895 H   0  0  0  0  0  0  0  0  0  0  0  0
   -1.2554    3.1245   -2.0188 H   0  0  0  0  0  0  0  0  0  0  0  0
   -0.0943    1.4746    1.5305 H   0  0  0  0  0  0  0  0  0  0  0  0
   -1.2804    0.7803   -2.5696 H   0  0  0  0  0  0  0  0  0  0  0  0
   -2.9075    1.2538   -2.0653 H   0  0  0  0  0  0  0  0  0  0  0  0
    0.6402    3.6147    1.1846 H   0  0  0  0  0  0  0  0  0  0  0  0
    0.2776    4.4671   -0.3320 H   0  0  0  0  0  0  0  0  0  0  0  0
   -0.2448   -1.0965    2.1001 H   0  0  0  0  0  0  0  0  0  0  0  0
   -3.4898   -1.0652   -1.6399 H   0  0  0  0  0  0  0  0  0  0  0  0
    1.4566   -0.0411   -1.5679 H   0  0  0  0  0  0  0  0  0  0  0  0
    1.9168    1.0743    2.5702 H   0  0  0  0  0  0  0  0  0  0  0  0
    4.2242    0.2345    2.5430 H   0  0  0  0  0  0  0  0  0  0  0  0
   -2.5902   -3.7433    1.8412 H   0  0  0  0  0  0  0  0  0  0  0  0
   -4.0943   -4.9761   -0.8253 H   0  0  0  0  0  0  0  0  0  0  0  0
   -2.3838   -4.7098   -0.4223 H   0  0  0  0  0  0  0  0  0  0  0  0
   -3.1033   -3.9357   -1.8716 H   0  0  0  0  0  0  0  0  0  0  0  0
    5.8212   -0.7091    1.3506 H   0  0  0  0  0  0  0  0  0  0  0  0
    2.6349   -2.6429   -2.0575 H   0  0  0  0  0  0  0  0  0  0  0  0
    4.1894   -2.9539   -1.2174 H   0  0  0  0  0  0  0  0  0  0  0  0
    4.1593   -2.6683   -2.9714 H   0  0  0  0  0  0  0  0  0  0  0  0
  1 11  1  0  0  0  0
  1 14  1  0  0  0  0
  2 14  2  0  0  0  0
  3 21  1  0  0  0  0
  3 25  1  0  0  0  0
  4 20  1  0  0  0  0
  4 39  1  0  0  0  0
  5 22  1  0  0  0  0
  5 26  1  0  0  0  0
  6 24  1  0  0  0  0
  6 43  1  0  0  0  0
  7  8  1  0  0  0  0
  7  9  1  0  0  0  0
  7 11  1  0  0  0  0
  7 27  1  0  0  0  0
  8 10  1  0  0  0  0
  8 14  1  0  0  0  0
  8 28  1  0  0  0  0
  9 12  1  0  0  0  0
  9 15  1  0  0  0  0
  9 29  1  0  0  0  0
 10 13  1  0  0  0  0
 10 30  1  0  0  0  0
 10 31  1  0  0  0  0
 11 32  1  0  0  0  0
 11 33  1  0  0  0  0
 12 13  1  0  0  0  0
 12 16  2  0  0  0  0
 13 17  2  0  0  0  0
 15 18  2  0  0  0  0
 15 19  1  0  0  0  0
 16 20  1  0  0  0  0
 16 34  1  0  0  0  0
 17 21  1  0  0  0  0
 17 35  1  0  0  0  0
 18 22  1  0  0  0  0
 18 36  1  0  0  0  0
 19 23  2  0  0  0  0
 19 37  1  0  0  0  0
 20 21  2  0  0  0  0
 22 24  2  0  0  0  0
 23 24  1  0  0  0  0
 23 38  1  0  0  0  0
 25 40  1  0  0  0  0
 25 41  1  0  0  0  0
 25 42  1  0  0  0  0
 26 44  1  0  0  0  0
 26 45  1  0  0  0  0
 26 46  1  0  0  0  0
M  END
> <PUBCHEM_COMPOUND_CID>
72506

> <PUBCHEM_CONFORMER_RMSD>
0.8

> <PUBCHEM_CONFORMER_DIVERSEORDER>
1
10
7
9
8
11
6
2
4
5
3

> <PUBCHEM_MMFF94_PARTIAL_CHARGES>
32
1 -0.43
10 0.14
11 0.28
12 -0.14
13 -0.14
14 0.66
15 -0.14
16 -0.15
17 -0.15
18 -0.15
19 -0.15
2 -0.57
20 0.08
21 0.08
22 0.08
23 -0.15
24 0.08
25 0.28
26 0.28
3 -0.36
34 0.15
35 0.15
36 0.15
37 0.15
38 0.15
39 0.45
4 -0.53
43 0.45
5 -0.36
6 -0.53
8 0.06
9 0.29

> <PUBCHEM_EFFECTIVE_ROTOR_COUNT>
3.8

> <PUBCHEM_PHARMACOPHORE_FEATURES>
9
1 2 acceptor
1 3 acceptor
1 4 donor
1 5 acceptor
1 6 donor
5 1 7 8 11 14 rings
6 12 13 16 17 20 21 rings
6 15 18 19 22 23 24 rings
6 7 8 9 10 12 13 rings

> <PUBCHEM_HEAVY_ATOM_COUNT>
26

> <PUBCHEM_ATOM_DEF_STEREO_COUNT>
3

> <PUBCHEM_ATOM_UDEF_STEREO_COUNT>
0

> <PUBCHEM_BOND_DEF_STEREO_COUNT>
0

> <PUBCHEM_BOND_UDEF_STEREO_COUNT>
0

> <PUBCHEM_ISOTOPIC_ATOM_COUNT>
0

> <PUBCHEM_COMPONENT_COUNT>
1

> <PUBCHEM_CACTVS_TAUTO_COUNT>
52

> <PUBCHEM_CONFORMER_ID>
00011B3A00000001

> <PUBCHEM_MMFF94_ENERGY>
92.9302

> <PUBCHEM_FEATURE_SELFOVERLAP>
45.928

> <PUBCHEM_SHAPE_FINGERPRINT>
10764073 3 16982132313240193739
1100329 8 18409157832225839025
11578080 2 17775568666939085424
11582403 64 16182894094079957880
116883 192 18410855511979161685
12156800 1 15224359622028023035
12160290 23 18187366476330428449
12293681 25 18129931304742356534
12363563 72 18263921218855102074
12553582 1 18116442611745863163
12788726 201 18334305274564315293
13140716 1 18190175883527490641
13583140 156 16271930466568778531
13681431 1 17901953267975714877
14866123 147 18336820906188417219
15420108 30 16902136682962237073
15422964 175 18200593712771174614
15840311 113 12253329645439745269
16752209 62 18040984116689631449
1813 80 18194695975539620795
19591789 44 17834110849568608817
20600515 1 17607776668353191313
20642791 13 18338782524578238385
21344244 181 18056194679487387927
21452121 199 18119522391101906668
21781051 124 17900278415682718969
23557571 272 18411416207338646128
23559900 14 18198618827591294654
3729539 64 17187582546006374518
463206 1 18116421734084586466
4921388 177 18338519617119506324
58260988 647 16700615580920893805
6442390 28 18052829039766449689
7364860 26 17544473519382207513
7399639 24 17985528186633454184
81228 2 18409167696963618065
84936 31 17478334596373203249
9709674 26 18199744761435785268

> <PUBCHEM_SHAPE_MULTIPOLES>
499.85
7.44
4.91
1.69
7.68
0.9
-0.08
-6
-0.86
-6.33
-0.26
0.89
-0.86
1.5

> <PUBCHEM_SHAPE_SELFOVERLAP>
1102.679

> <PUBCHEM_SHAPE_VOLUME>
269.2

> <PUBCHEM_COORDINATE_TYPE>
2
5
10

$$$$
