69201
  -OEChem-02172602503D

 18 18  0     0  0  0  0  0  0999 V2000
    1.5061   -0.3004   -0.0005 O   0  0  0  0  0  0  0  0  0  0  0  0
   -3.0320    0.0846    0.0017 O   0  0  0  0  0  0  0  0  0  0  0  0
    0.8315    1.9004   -0.0004 O   0  0  0  0  0  0  0  0  0  0  0  0
   -0.7851    0.1479   -0.0010 C   0  0  0  0  0  0  0  0  0  0  0  0
    2.8776    0.1100    0.0007 C   0  0  0  0  0  0  0  0  0  0  0  0
    0.5434    0.6833   -0.0010 C   0  0  0  0  0  0  0  0  0  0  0  0
   -1.1928   -1.2075   -0.0016 C   0  0  0  0  0  0  0  0  0  0  0  0
    3.7603   -1.1198    0.0012 C   0  0  0  0  0  0  0  0  0  0  0  0
   -1.9407    0.8942    0.0009 C   0  0  0  0  0  0  0  0  0  0  0  0
   -2.5682   -1.1927    0.0001 C   0  0  0  0  0  0  0  0  0  0  0  0
    3.0768    0.7114   -0.8929 H   0  0  0  0  0  0  0  0  0  0  0  0
    3.0754    0.7109    0.8949 H   0  0  0  0  0  0  0  0  0  0  0  0
   -0.5711   -2.0917   -0.0029 H   0  0  0  0  0  0  0  0  0  0  0  0
    4.8180   -0.8420    0.0021 H   0  0  0  0  0  0  0  0  0  0  0  0
    3.5566   -1.7400    0.8803 H   0  0  0  0  0  0  0  0  0  0  0  0
    3.5580   -1.7396   -0.8786 H   0  0  0  0  0  0  0  0  0  0  0  0
   -2.1498    1.9545    0.0023 H   0  0  0  0  0  0  0  0  0  0  0  0
   -3.3241   -1.9643    0.0006 H   0  0  0  0  0  0  0  0  0  0  0  0
  1  5  1  0  0  0  0
  1  6  1  0  0  0  0
  2  9  1  0  0  0  0
  2 10  1  0  0  0  0
  3  6  2  0  0  0  0
  4  6  1  0  0  0  0
  4  7  1  0  0  0  0
  4  9  2  0  0  0  0
  5  8  1  0  0  0  0
  5 11  1  0  0  0  0
  5 12  1  0  0  0  0
  7 10  2  0  0  0  0
  7 13  1  0  0  0  0
  8 14  1  0  0  0  0
  8 15  1  0  0  0  0
  8 16  1  0  0  0  0
  9 17  1  0  0  0  0
 10 18  1  0  0  0  0
M  END
> <PUBCHEM_COMPOUND_CID>
69201

> <PUBCHEM_CONFORMER_RMSD>
0.6

> <PUBCHEM_CONFORMER_DIVERSEORDER>
1
11
13
9
8
14
10
12
3
2
4
7
5
6

> <PUBCHEM_MMFF94_PARTIAL_CHARGES>
12
1 -0.43
10 -0.01
13 0.15
17 0.15
18 0.15
2 -0.28
3 -0.57
4 -0.09
5 0.28
6 0.81
7 -0.15
9 -0.01

> <PUBCHEM_EFFECTIVE_ROTOR_COUNT>
3

> <PUBCHEM_PHARMACOPHORE_FEATURES>
3
1 2 acceptor
1 3 acceptor
5 2 4 7 9 10 rings

> <PUBCHEM_HEAVY_ATOM_COUNT>
10

> <PUBCHEM_ATOM_DEF_STEREO_COUNT>
0

> <PUBCHEM_ATOM_UDEF_STEREO_COUNT>
0

> <PUBCHEM_BOND_DEF_STEREO_COUNT>
0

> <PUBCHEM_BOND_UDEF_STEREO_COUNT>
0

> <PUBCHEM_ISOTOPIC_ATOM_COUNT>
0

> <PUBCHEM_COMPONENT_COUNT>
1

> <PUBCHEM_CACTVS_TAUTO_COUNT>
1

> <PUBCHEM_CONFORMER_ID>
00010E5100000001

> <PUBCHEM_MMFF94_ENERGY>
6.5329

> <PUBCHEM_FEATURE_SELFOVERLAP>
15.223

> <PUBCHEM_SHAPE_FINGERPRINT>
11062470 55 15697999621911692355
12032990 46 18410862048824596498
12932764 1 17489022781329236096
13690532 89 18411696591267030591
14128692 85 18336831986776649236
14325111 11 18410856572735688032
20201158 50 18341332214865508254
207724 885 18335708225626441481
23402539 116 17703501109294253397
23463225 33 18337673018851669230
23552423 10 18117277171262183669
369184 2 14836409124894907167
7364860 26 18197780122845957632

> <PUBCHEM_SHAPE_MULTIPOLES>
188.19
5.38
1.47
0.59
3.43
0.2
0
-1.91
0
-0.01
0
0.01
-0.02
0

> <PUBCHEM_SHAPE_SELFOVERLAP>
383.869

> <PUBCHEM_SHAPE_VOLUME>
111.2

> <PUBCHEM_COORDINATE_TYPE>
2
5
10

$$$$
