371260
  -OEChem-02172602333D

 49 53  0     1  0  0  0  0  0999 V2000
    4.8137    1.2339   -0.2701 O   0  0  0  0  0  0  0  0  0  0  0  0
    6.0473   -0.7838    0.1582 O   0  0  0  0  0  0  0  0  0  0  0  0
   -4.9774   -1.2282    0.7228 O   0  0  0  0  0  0  0  0  0  0  0  0
   -5.5117    1.1057    0.4565 O   0  0  0  0  0  0  0  0  0  0  0  0
   -2.4048   -2.3177    0.1504 O   0  0  0  0  0  0  0  0  0  0  0  0
    0.0131   -0.7041   -1.9745 O   0  0  0  0  0  0  0  0  0  0  0  0
    0.7986    1.8970    0.5724 N   0  0  1  0  0  0  0  0  0  0  0  0
   -0.1141    2.8747   -0.0449 C   0  0  0  0  0  0  0  0  0  0  0  0
    1.8951    1.5221   -0.3367 C   0  0  0  0  0  0  0  0  0  0  0  0
   -0.9935    2.2945   -1.1697 C   0  0  0  0  0  0  0  0  0  0  0  0
    2.5914    0.2183    0.0046 C   0  0  0  0  0  0  0  0  0  0  0  0
   -2.0088    1.2805   -0.6900 C   0  0  0  0  0  0  0  0  0  0  0  0
    1.9211   -1.0045    0.2665 C   0  0  0  0  0  0  0  0  0  0  0  0
   -1.7141   -0.0952   -0.5209 C   0  0  0  0  0  0  0  0  0  0  0  0
    0.4155   -1.1401    0.3787 C   0  0  0  0  0  0  0  0  0  0  0  0
    3.9861    0.1772   -0.0145 C   0  0  0  0  0  0  0  0  0  0  0  0
   -0.3725   -0.6414   -0.8133 C   0  0  0  0  0  0  0  0  0  0  0  0
   -2.6736   -1.0011   -0.0461 C   0  0  0  0  0  0  0  0  0  0  0  0
   -3.2998    1.7358   -0.3626 C   0  0  0  0  0  0  0  0  0  0  0  0
    4.7017   -0.9745    0.2262 C   0  0  0  0  0  0  0  0  0  0  0  0
    2.6841   -2.1764    0.5189 C   0  0  0  0  0  0  0  0  0  0  0  0
   -3.9238   -0.5062    0.2535 C   0  0  0  0  0  0  0  0  0  0  0  0
   -4.2284    0.8244    0.1006 C   0  0  0  0  0  0  0  0  0  0  0  0
    1.3250    2.4189    1.8369 C   0  0  0  0  0  0  0  0  0  0  0  0
    4.0788   -2.1687    0.4972 C   0  0  0  0  0  0  0  0  0  0  0  0
    6.1106    0.6188   -0.1576 C   0  0  0  0  0  0  0  0  0  0  0  0
   -5.9802   -0.2000    0.8506 C   0  0  0  0  0  0  0  0  0  0  0  0
   -3.1795   -3.2597   -0.5929 C   0  0  0  0  0  0  0  0  0  0  0  0
    0.4570    3.7259   -0.4382 H   0  0  0  0  0  0  0  0  0  0  0  0
   -0.7877    3.2790    0.7228 H   0  0  0  0  0  0  0  0  0  0  0  0
    2.6152    2.3496   -0.3870 H   0  0  0  0  0  0  0  0  0  0  0  0
    1.5447    1.3975   -1.3662 H   0  0  0  0  0  0  0  0  0  0  0  0
   -0.4017    1.8776   -1.9900 H   0  0  0  0  0  0  0  0  0  0  0  0
   -1.5335    3.1312   -1.6345 H   0  0  0  0  0  0  0  0  0  0  0  0
    0.1514   -2.1976    0.5006 H   0  0  0  0  0  0  0  0  0  0  0  0
    0.0929   -0.6309    1.2942 H   0  0  0  0  0  0  0  0  0  0  0  0
   -3.5665    2.7832   -0.4657 H   0  0  0  0  0  0  0  0  0  0  0  0
    2.1807   -3.1158    0.7410 H   0  0  0  0  0  0  0  0  0  0  0  0
    0.5068    2.6286    2.5350 H   0  0  0  0  0  0  0  0  0  0  0  0
    1.9009    3.3405    1.6946 H   0  0  0  0  0  0  0  0  0  0  0  0
    1.9677    1.6825    2.3313 H   0  0  0  0  0  0  0  0  0  0  0  0
    4.6431   -3.0740    0.6892 H   0  0  0  0  0  0  0  0  0  0  0  0
    6.6756    1.1316    0.6291 H   0  0  0  0  0  0  0  0  0  0  0  0
    6.6416    0.7419   -1.1085 H   0  0  0  0  0  0  0  0  0  0  0  0
   -6.3060   -0.1554    1.8961 H   0  0  0  0  0  0  0  0  0  0  0  0
   -6.8395   -0.4681    0.2252 H   0  0  0  0  0  0  0  0  0  0  0  0
   -3.4546   -2.8708   -1.5794 H   0  0  0  0  0  0  0  0  0  0  0  0
   -4.0742   -3.5391   -0.0298 H   0  0  0  0  0  0  0  0  0  0  0  0
   -2.5715   -4.1579   -0.7351 H   0  0  0  0  0  0  0  0  0  0  0  0
  1 16  1  0  0  0  0
  1 26  1  0  0  0  0
  2 20  1  0  0  0  0
  2 26  1  0  0  0  0
  3 22  1  0  0  0  0
  3 27  1  0  0  0  0
  4 23  1  0  0  0  0
  4 27  1  0  0  0  0
  5 18  1  0  0  0  0
  5 28  1  0  0  0  0
  6 17  2  0  0  0  0
  7  8  1  0  0  0  0
  7  9  1  0  0  0  0
  7 24  1  0  0  0  0
  8 10  1  0  0  0  0
  8 29  1  0  0  0  0
  8 30  1  0  0  0  0
  9 11  1  0  0  0  0
  9 31  1  0  0  0  0
  9 32  1  0  0  0  0
 10 12  1  0  0  0  0
 10 33  1  0  0  0  0
 10 34  1  0  0  0  0
 11 13  2  0  0  0  0
 11 16  1  0  0  0  0
 12 14  1  0  0  0  0
 12 19  2  0  0  0  0
 13 15  1  0  0  0  0
 13 21  1  0  0  0  0
 14 17  1  0  0  0  0
 14 18  2  0  0  0  0
 15 17  1  0  0  0  0
 15 35  1  0  0  0  0
 15 36  1  0  0  0  0
 16 20  2  0  0  0  0
 18 22  1  0  0  0  0
 19 23  1  0  0  0  0
 19 37  1  0  0  0  0
 20 25  1  0  0  0  0
 21 25  2  0  0  0  0
 21 38  1  0  0  0  0
 22 23  2  0  0  0  0
 24 39  1  0  0  0  0
 24 40  1  0  0  0  0
 24 41  1  0  0  0  0
 25 42  1  0  0  0  0
 26 43  1  0  0  0  0
 26 44  1  0  0  0  0
 27 45  1  0  0  0  0
 27 46  1  0  0  0  0
 28 47  1  0  0  0  0
 28 48  1  0  0  0  0
 28 49  1  0  0  0  0
M  END
> <PUBCHEM_COMPOUND_CID>
371260

> <PUBCHEM_CONFORMER_RMSD>
0.8

> <PUBCHEM_CONFORMER_DIVERSEORDER>
1
11
4
10
2
6
5
9
14
8
3
7
13
12

> <PUBCHEM_MMFF94_PARTIAL_CHARGES>
31
1 -0.36
10 0.14
11 -0.14
12 -0.14
13 -0.14
14 0.09
15 0.2
16 0.08
17 0.42
18 0.08
19 -0.15
2 -0.36
20 0.08
21 -0.15
22 0.08
23 0.08
24 0.27
25 -0.15
26 0.56
27 0.56
28 0.28
3 -0.36
37 0.15
38 0.15
4 -0.36
42 0.15
5 -0.36
6 -0.57
7 -0.81
8 0.27
9 0.41

> <PUBCHEM_EFFECTIVE_ROTOR_COUNT>
3.2

> <PUBCHEM_PHARMACOPHORE_FEATURES>
11
1 1 acceptor
1 2 acceptor
1 3 acceptor
1 4 acceptor
1 5 acceptor
1 6 acceptor
1 7 cation
5 1 2 16 20 26 rings
5 3 4 22 23 27 rings
6 11 13 16 20 21 25 rings
6 12 14 18 19 22 23 rings

> <PUBCHEM_HEAVY_ATOM_COUNT>
28

> <PUBCHEM_ATOM_DEF_STEREO_COUNT>
0

> <PUBCHEM_ATOM_UDEF_STEREO_COUNT>
0

> <PUBCHEM_BOND_DEF_STEREO_COUNT>
0

> <PUBCHEM_BOND_UDEF_STEREO_COUNT>
0

> <PUBCHEM_ISOTOPIC_ATOM_COUNT>
0

> <PUBCHEM_COMPONENT_COUNT>
1

> <PUBCHEM_CACTVS_TAUTO_COUNT>
2

> <PUBCHEM_CONFORMER_ID>
0005AA3C00000001

> <PUBCHEM_MMFF94_ENERGY>
99.3705

> <PUBCHEM_FEATURE_SELFOVERLAP>
56.135

> <PUBCHEM_SHAPE_FINGERPRINT>
10290309 65 18266173933512840742
10675989 125 16751267693400785981
10906281 52 18129675097216483933
1100329 8 18337394949720415425
11135609 12 17314249915363677209
11578080 2 12975328525388855284
12011746 2 18409441475923176893
12107183 9 17614839617685885914
12166972 35 17821733806658158956
12236239 1 18131351912398913026
12467345 10 18260268516942227308
12553582 1 18337094722589358362
12633257 1 18201727262499925147
12788726 201 17559960930627850304
13140716 1 18270960266758090997
13402501 40 18408886226355454795
14341114 176 18408609140719301910
14341114 328 18408040706551566522
14617045 38 18408890628665148186
14787075 74 18260267455953358442
14790565 3 18122908633644729321
14955137 171 17917999394858776652
15131766 46 14906457985131859026
15196674 1 18335419015403087596
15209289 33 18186518825727110283
15238133 3 18272384048395934297
15927050 60 17763188342557524036
1601671 61 18060421309189306482
16110190 28 18411703200878606325
17492 89 18119806903158916826
1813 80 16805608053135436742
19141452 34 18413108385682532943
19319366 153 18040431084059141002
19591789 44 18267018539179043996
21033648 29 18115569497083040277
21267235 1 18337114463061105430
21421861 104 18042116562480509818
23559900 14 18335976584263659985
3004659 81 18260268521643213938
335352 9 18410011044600504053
350125 39 18409168813797572029
4073 2 17968103066390805634
5104073 3 18265324015862304448
59755656 215 18270971141953284886

> <PUBCHEM_SHAPE_MULTIPOLES>
536.03
12.39
3.01
1.05
2.89
0.16
0.02
2.45
-2.14
-0.68
-0.1
-0.2
-0.28
-0.08

> <PUBCHEM_SHAPE_SELFOVERLAP>
1193.659

> <PUBCHEM_SHAPE_VOLUME>
284.7

> <PUBCHEM_COORDINATE_TYPE>
2
5
10

$$$$
