398937
  -OEChem-02172602253D

 37 41  0     1  0  0  0  0  0999 V2000
   -3.5703    1.6278    1.8540 O   0  0  0  0  0  0  0  0  0  0  0  0
    3.6487    1.7019   -0.4367 O   0  0  0  0  0  0  0  0  0  0  0  0
    4.3679   -0.3184    0.6602 O   0  0  0  0  0  0  0  0  0  0  0  0
   -1.5803   -1.9973    0.2143 N   0  0  1  0  0  0  0  0  0  0  0  0
   -1.1310    0.1506   -0.6339 C   0  0  2  0  0  0  0  0  0  0  0  0
   -1.9293   -0.5815    0.4736 C   0  0  1  0  0  0  0  0  0  0  0  0
   -1.3624   -0.7626   -1.8559 C   0  0  0  0  0  0  0  0  0  0  0  0
   -1.6217   -2.1482   -1.2573 C   0  0  0  0  0  0  0  0  0  0  0  0
    0.3597    0.0576   -0.2590 C   0  0  0  0  0  0  0  0  0  0  0  0
   -3.4422   -0.3138    0.4020 C   0  0  0  0  0  0  0  0  0  0  0  0
   -0.2055   -2.2297    0.7218 C   0  0  0  0  0  0  0  0  0  0  0  0
   -1.6622    1.5426   -0.8837 C   0  0  0  0  0  0  0  0  0  0  0  0
    0.7998   -1.1451    0.3755 C   0  0  0  0  0  0  0  0  0  0  0  0
   -3.7206    1.1900    0.5068 C   0  0  2  0  0  0  0  0  0  0  0  0
   -2.8005    2.0109   -0.3490 C   0  0  0  0  0  0  0  0  0  0  0  0
    1.2994    1.0541   -0.5658 C   0  0  0  0  0  0  0  0  0  0  0  0
    2.1479   -1.3256    0.7181 C   0  0  0  0  0  0  0  0  0  0  0  0
    2.6187    0.8386   -0.2159 C   0  0  0  0  0  0  0  0  0  0  0  0
    3.0306   -0.3147    0.4078 C   0  0  0  0  0  0  0  0  0  0  0  0
    4.7532    0.9629    0.1229 C   0  0  0  0  0  0  0  0  0  0  0  0
   -1.6043   -0.2815    1.4817 H   0  0  0  0  0  0  0  0  0  0  0  0
   -0.5071   -0.7782   -2.5418 H   0  0  0  0  0  0  0  0  0  0  0  0
   -2.2406   -0.4514   -2.4362 H   0  0  0  0  0  0  0  0  0  0  0  0
   -2.6186   -2.4964   -1.5528 H   0  0  0  0  0  0  0  0  0  0  0  0
   -0.9129   -2.8958   -1.6318 H   0  0  0  0  0  0  0  0  0  0  0  0
   -3.9438   -0.8530    1.2150 H   0  0  0  0  0  0  0  0  0  0  0  0
   -3.8652   -0.6866   -0.5389 H   0  0  0  0  0  0  0  0  0  0  0  0
    0.1590   -3.2025    0.3685 H   0  0  0  0  0  0  0  0  0  0  0  0
   -0.2608   -2.2982    1.8162 H   0  0  0  0  0  0  0  0  0  0  0  0
   -1.1117    2.2016   -1.5494 H   0  0  0  0  0  0  0  0  0  0  0  0
   -4.7572    1.3845    0.2093 H   0  0  0  0  0  0  0  0  0  0  0  0
   -3.1022    3.0317   -0.5681 H   0  0  0  0  0  0  0  0  0  0  0  0
    1.0265    1.9736   -1.0694 H   0  0  0  0  0  0  0  0  0  0  0  0
    2.4857   -2.2309    1.2110 H   0  0  0  0  0  0  0  0  0  0  0  0
   -4.1941    1.1188    2.3993 H   0  0  0  0  0  0  0  0  0  0  0  0
    5.2039    1.5588    0.9248 H   0  0  0  0  0  0  0  0  0  0  0  0
    5.5023    0.8039   -0.6611 H   0  0  0  0  0  0  0  0  0  0  0  0
  1 14  1  0  0  0  0
  1 35  1  0  0  0  0
  2 18  1  0  0  0  0
  2 20  1  0  0  0  0
  3 19  1  0  0  0  0
  3 20  1  0  0  0  0
  4  6  1  0  0  0  0
  4  8  1  0  0  0  0
  4 11  1  0  0  0  0
  5  6  1  0  0  0  0
  5  7  1  0  0  0  0
  5  9  1  0  0  0  0
  5 12  1  0  0  0  0
  6 10  1  0  0  0  0
  6 21  1  0  0  0  0
  7  8  1  0  0  0  0
  7 22  1  0  0  0  0
  7 23  1  0  0  0  0
  8 24  1  0  0  0  0
  8 25  1  0  0  0  0
  9 13  1  0  0  0  0
  9 16  2  0  0  0  0
 10 14  1  0  0  0  0
 10 26  1  0  0  0  0
 10 27  1  0  0  0  0
 11 13  1  0  0  0  0
 11 28  1  0  0  0  0
 11 29  1  0  0  0  0
 12 15  2  0  0  0  0
 12 30  1  0  0  0  0
 13 17  2  0  0  0  0
 14 15  1  0  0  0  0
 14 31  1  0  0  0  0
 15 32  1  0  0  0  0
 16 18  1  0  0  0  0
 16 33  1  0  0  0  0
 17 19  1  0  0  0  0
 17 34  1  0  0  0  0
 18 19  2  0  0  0  0
 20 36  1  0  0  0  0
 20 37  1  0  0  0  0
M  END
> <PUBCHEM_COMPOUND_CID>
398937

> <PUBCHEM_CONFORMER_RMSD>
0.6

> <PUBCHEM_CONFORMER_DIVERSEORDER>
1

> <PUBCHEM_MMFF94_PARTIAL_CHARGES>
23
1 -0.68
11 0.41
12 -0.29
13 -0.14
14 0.42
15 -0.29
16 -0.15
17 -0.15
18 0.08
19 0.08
2 -0.36
20 0.56
3 -0.36
30 0.15
32 0.15
33 0.15
34 0.15
35 0.4
4 -0.81
5 0.28
6 0.27
8 0.27
9 -0.14

> <PUBCHEM_EFFECTIVE_ROTOR_COUNT>
1.6

> <PUBCHEM_PHARMACOPHORE_FEATURES>
9
1 1 acceptor
1 1 donor
1 2 acceptor
1 3 acceptor
1 4 cation
5 2 3 18 19 20 rings
6 5 6 10 12 14 15 rings
6 9 13 16 17 18 19 rings
8 4 5 6 7 8 9 11 13 rings

> <PUBCHEM_HEAVY_ATOM_COUNT>
20

> <PUBCHEM_ATOM_DEF_STEREO_COUNT>
3

> <PUBCHEM_ATOM_UDEF_STEREO_COUNT>
0

> <PUBCHEM_BOND_DEF_STEREO_COUNT>
0

> <PUBCHEM_BOND_UDEF_STEREO_COUNT>
0

> <PUBCHEM_ISOTOPIC_ATOM_COUNT>
0

> <PUBCHEM_COMPONENT_COUNT>
1

> <PUBCHEM_CACTVS_TAUTO_COUNT>
1

> <PUBCHEM_CONFORMER_ID>
0006165900000001

> <PUBCHEM_MMFF94_ENERGY>
59.2707

> <PUBCHEM_FEATURE_SELFOVERLAP>
45.864

> <PUBCHEM_SHAPE_FINGERPRINT>
10863032 1 18272655610466592115
10948715 1 18341333288675579091
10967382 1 18261669281802449212
11578080 2 11458996454401993279
12173636 292 18410288150904488422
12251169 10 18114184133273453645
12390115 104 18266756825479263624
12403814 3 17821723940279815149
12491281 212 18202278108718567410
12788726 201 18057868307868133647
12892183 10 17603877645908132345
13024252 1 17968086573357315767
13140716 1 17899985124823689320
13221675 6 18334011700780808854
13544653 18 10881698913350517077
13583140 156 15285899412926961636
14289901 80 14418127414167156716
14787075 74 18410574020154781043
15163728 17 17130451007320593001
15209294 21 18410854373791807312
15309172 13 18186238415933788035
15534591 1 18272647943981500351
15775835 57 18412265029803449881
16945 1 18115875088158361559
1741750 31 18202566163532291715
18186145 218 18270687437313021004
18219364 16 17895744106601358077
19862831 5 12607403286717760092
200 152 18191570046685907791
20261772 1 18260553316018065560
20510252 161 18338518663209381811
20525323 117 18336820995923787798
21197605 99 17687456872350588757
21501502 16 18335977670742621294
21524375 3 18342455915891227663
21731228 192 18337961095166389395
23227448 37 18409729594681382021
23402539 116 18271801393570266359
23419403 2 12146792362759419255
23559900 14 18202280304528141000
2748010 2 17111262145550757622
5104073 3 18334569192495559528
5706482 22 18413386527790807223
633830 44 17843971342866339853
69090 78 18412258428575801015
90525 40 18341886390000245071
9862522 239 18190443996312622372

> <PUBCHEM_SHAPE_MULTIPOLES>
389
7.25
2.26
1.21
5.68
0.4
0.14
-3.59
-1.84
-1
0.03
-0.92
0.08
-0.9

> <PUBCHEM_SHAPE_SELFOVERLAP>
882.987

> <PUBCHEM_SHAPE_VOLUME>
203.5

> <PUBCHEM_COORDINATE_TYPE>
2
5
10

$$$$
