5316141
  -OEChem-02172602263D

 26 27  0     0  0  0  0  0  0999 V2000
    2.2884    1.1520    0.0288 O   0  0  0  0  0  0  0  0  0  0  0  0
    2.9611   -1.1378    0.3629 O   0  0  0  0  0  0  0  0  0  0  0  0
   -0.4169    1.9183   -0.5698 O   0  0  0  0  0  0  0  0  0  0  0  0
   -0.9912   -0.4135   -0.4771 C   0  0  0  0  0  0  0  0  0  0  0  0
    1.2480    0.2839   -0.0979 C   0  0  0  0  0  0  0  0  0  0  0  0
   -0.0586    0.6223   -0.3847 C   0  0  0  0  0  0  0  0  0  0  0  0
    1.6322   -1.0237    0.0929 C   0  0  0  0  0  0  0  0  0  0  0  0
   -2.4231   -0.1186   -0.7849 C   0  0  0  0  0  0  0  0  0  0  0  0
   -0.5986   -1.7495   -0.2822 C   0  0  0  0  0  0  0  0  0  0  0  0
    0.7311   -2.0650    0.0073 C   0  0  0  0  0  0  0  0  0  0  0  0
    3.3704    0.2443    0.3213 C   0  0  0  0  0  0  0  0  0  0  0  0
   -3.2527    0.1167    0.4494 C   0  0  0  0  0  0  0  0  0  0  0  0
   -0.2013    2.8175    0.5190 C   0  0  0  0  0  0  0  0  0  0  0  0
   -4.2887   -0.6468    0.8151 C   0  0  0  0  0  0  0  0  0  0  0  0
   -2.5022    0.7627   -1.4339 H   0  0  0  0  0  0  0  0  0  0  0  0
   -2.8435   -0.9398   -1.3811 H   0  0  0  0  0  0  0  0  0  0  0  0
   -1.3275   -2.5534   -0.3534 H   0  0  0  0  0  0  0  0  0  0  0  0
    1.0378   -3.0937    0.1583 H   0  0  0  0  0  0  0  0  0  0  0  0
    3.8001    0.5126    1.2933 H   0  0  0  0  0  0  0  0  0  0  0  0
    4.1421    0.3589   -0.4485 H   0  0  0  0  0  0  0  0  0  0  0  0
   -2.9972    0.9735    1.0682 H   0  0  0  0  0  0  0  0  0  0  0  0
   -0.3511    2.3252    1.4861 H   0  0  0  0  0  0  0  0  0  0  0  0
   -0.9260    3.6320    0.4319 H   0  0  0  0  0  0  0  0  0  0  0  0
    0.8031    3.2459    0.4604 H   0  0  0  0  0  0  0  0  0  0  0  0
   -4.8506   -0.4166    1.7136 H   0  0  0  0  0  0  0  0  0  0  0  0
   -4.5919   -1.5087    0.2310 H   0  0  0  0  0  0  0  0  0  0  0  0
  1  5  1  0  0  0  0
  1 11  1  0  0  0  0
  2  7  1  0  0  0  0
  2 11  1  0  0  0  0
  3  6  1  0  0  0  0
  3 13  1  0  0  0  0
  4  6  2  0  0  0  0
  4  8  1  0  0  0  0
  4  9  1  0  0  0  0
  5  6  1  0  0  0  0
  5  7  2  0  0  0  0
  7 10  1  0  0  0  0
  8 12  1  0  0  0  0
  8 15  1  0  0  0  0
  8 16  1  0  0  0  0
  9 10  2  0  0  0  0
  9 17  1  0  0  0  0
 10 18  1  0  0  0  0
 11 19  1  0  0  0  0
 11 20  1  0  0  0  0
 12 14  2  0  0  0  0
 12 21  1  0  0  0  0
 13 22  1  0  0  0  0
 13 23  1  0  0  0  0
 13 24  1  0  0  0  0
 14 25  1  0  0  0  0
 14 26  1  0  0  0  0
M  END
> <PUBCHEM_COMPOUND_CID>
5316141

> <PUBCHEM_CONFORMER_RMSD>
0.6

> <PUBCHEM_CONFORMER_DIVERSEORDER>
1
8
5
7
4
6
2
3

> <PUBCHEM_MMFF94_PARTIAL_CHARGES>
19
1 -0.36
10 -0.15
11 0.56
12 -0.29
13 0.28
14 -0.3
17 0.15
18 0.15
2 -0.36
21 0.15
25 0.15
26 0.15
3 -0.36
4 -0.14
5 0.08
6 0.08
7 0.08
8 0.28
9 -0.15

> <PUBCHEM_EFFECTIVE_ROTOR_COUNT>
3.6

> <PUBCHEM_PHARMACOPHORE_FEATURES>
6
1 1 acceptor
1 14 hydrophobe
1 2 acceptor
1 3 acceptor
5 1 2 5 7 11 rings
6 4 5 6 7 9 10 rings

> <PUBCHEM_HEAVY_ATOM_COUNT>
14

> <PUBCHEM_ATOM_DEF_STEREO_COUNT>
0

> <PUBCHEM_ATOM_UDEF_STEREO_COUNT>
0

> <PUBCHEM_BOND_DEF_STEREO_COUNT>
0

> <PUBCHEM_BOND_UDEF_STEREO_COUNT>
0

> <PUBCHEM_ISOTOPIC_ATOM_COUNT>
0

> <PUBCHEM_COMPONENT_COUNT>
1

> <PUBCHEM_CACTVS_TAUTO_COUNT>
1

> <PUBCHEM_CONFORMER_ID>
00511E2D00000001

> <PUBCHEM_MMFF94_ENERGY>
40.9435

> <PUBCHEM_FEATURE_SELFOVERLAP>
30.604

> <PUBCHEM_SHAPE_FINGERPRINT>
10219947 1 18410857668105465759
108231 29 18408886252172640433
10967382 1 18411133662519251486
10980938 120 18411139151545562423
11132069 177 18271512161201909322
11471102 22 18335433356610106139
11680611 10 17682392551249973106
12032990 46 18335987488663527991
12251169 10 18338243768819076075
12382932 28 18411133666661348491
13132413 78 18272937128598970513
13140716 1 18266169724839906010
15501101 241 18260831526993457901
161256 15 18198915703387292814
16945 1 18339912732532340686
17844478 74 17967530160185590575
193761 8 17835518215540441646
20510252 161 18271518694264021704
21256008 23 18410299128967302497
2334 1 18121773095946818902
23402539 116 18201988937160495078
23463225 33 18408039615155080759
23493267 7 17459455672344323101
2748010 2 17908129985166955878
528886 8 18339916099638949122
53812653 166 18269552921738829392
53812653 8 18409456868864406652
568465 68 18041579021447798155

> <PUBCHEM_SHAPE_MULTIPOLES>
270.51
5.34
2.27
0.8
2.98
1.09
0.01
-0.92
-1.55
-0.43
-0.16
0.36
0.03
0.02

> <PUBCHEM_SHAPE_SELFOVERLAP>
577.401

> <PUBCHEM_SHAPE_VOLUME>
151.4

> <PUBCHEM_COORDINATE_TYPE>
2
5
10

$$$$
