72616
  -OEChem-02172602293D

 50 53  0     1  0  0  0  0  0999 V2000
   -4.7414   -1.3372   -0.0635 O   0  0  0  0  0  0  0  0  0  0  0  0
   -6.0870    0.6503    0.0605 O   0  0  0  0  0  0  0  0  0  0  0  0
   -0.0732    0.5756   -2.1341 O   0  0  0  0  0  0  0  0  0  0  0  0
    5.5698   -0.6999    0.4556 O   0  0  0  0  0  0  0  0  0  0  0  0
    4.7999    1.9660    0.3374 O   0  0  0  0  0  0  0  0  0  0  0  0
   -0.6909   -1.6322    0.8073 N   0  0  2  0  0  0  0  0  0  0  0  0
   -1.8112   -1.4673   -0.1346 C   0  0  0  0  0  0  0  0  0  0  0  0
   -2.5801   -0.1673    0.0082 C   0  0  0  0  0  0  0  0  0  0  0  0
    0.2744   -2.6415    0.3391 C   0  0  0  0  0  0  0  0  0  0  0  0
    1.1122   -2.1987   -0.8764 C   0  0  0  0  0  0  0  0  0  0  0  0
   -1.9800    1.1173    0.0625 C   0  0  0  0  0  0  0  0  0  0  0  0
    2.0630   -1.0607   -0.5819 C   0  0  0  0  0  0  0  0  0  0  0  0
   -0.4840    1.3530    0.1278 C   0  0  0  0  0  0  0  0  0  0  0  0
   -3.9749   -0.2085    0.0064 C   0  0  0  0  0  0  0  0  0  0  0  0
    1.6932    0.2942   -0.6290 C   0  0  0  0  0  0  0  0  0  0  0  0
    0.3226    0.7166   -0.9833 C   0  0  0  0  0  0  0  0  0  0  0  0
   -4.7543    0.9249    0.0737 C   0  0  0  0  0  0  0  0  0  0  0  0
   -2.8079    2.2697    0.1385 C   0  0  0  0  0  0  0  0  0  0  0  0
   -1.1810   -1.9778    2.1448 C   0  0  0  0  0  0  0  0  0  0  0  0
    3.3813   -1.3688   -0.2052 C   0  0  0  0  0  0  0  0  0  0  0  0
   -4.2000    2.1801    0.1413 C   0  0  0  0  0  0  0  0  0  0  0  0
    2.6096    1.3065   -0.3179 C   0  0  0  0  0  0  0  0  0  0  0  0
    4.2982   -0.3611    0.1022 C   0  0  0  0  0  0  0  0  0  0  0  0
    3.9126    0.9751    0.0448 C   0  0  0  0  0  0  0  0  0  0  0  0
   -6.0710   -0.7860   -0.0257 C   0  0  0  0  0  0  0  0  0  0  0  0
    6.5266   -0.8118   -0.5960 C   0  0  0  0  0  0  0  0  0  0  0  0
    4.8734    2.3896    1.6975 C   0  0  0  0  0  0  0  0  0  0  0  0
   -2.4823   -2.3317   -0.0454 H   0  0  0  0  0  0  0  0  0  0  0  0
   -1.4732   -1.4863   -1.1756 H   0  0  0  0  0  0  0  0  0  0  0  0
   -0.2475   -3.5760    0.0944 H   0  0  0  0  0  0  0  0  0  0  0  0
    0.9749   -2.8788    1.1512 H   0  0  0  0  0  0  0  0  0  0  0  0
    0.4919   -1.9571   -1.7446 H   0  0  0  0  0  0  0  0  0  0  0  0
    1.7011   -3.0653   -1.2076 H   0  0  0  0  0  0  0  0  0  0  0  0
   -0.2692    2.4283    0.0778 H   0  0  0  0  0  0  0  0  0  0  0  0
   -0.1269    1.0116    1.1063 H   0  0  0  0  0  0  0  0  0  0  0  0
   -2.3578    3.2589    0.2006 H   0  0  0  0  0  0  0  0  0  0  0  0
   -0.3491   -2.0289    2.8562 H   0  0  0  0  0  0  0  0  0  0  0  0
   -1.7033   -2.9413    2.1562 H   0  0  0  0  0  0  0  0  0  0  0  0
   -1.8629   -1.2102    2.5264 H   0  0  0  0  0  0  0  0  0  0  0  0
    3.6985   -2.4084   -0.1469 H   0  0  0  0  0  0  0  0  0  0  0  0
   -4.8145    3.0712    0.1970 H   0  0  0  0  0  0  0  0  0  0  0  0
    2.3135    2.3520   -0.3613 H   0  0  0  0  0  0  0  0  0  0  0  0
   -6.5970   -1.1968    0.8436 H   0  0  0  0  0  0  0  0  0  0  0  0
   -6.6032   -1.0901   -0.9342 H   0  0  0  0  0  0  0  0  0  0  0  0
    6.2327   -1.5970   -1.2998 H   0  0  0  0  0  0  0  0  0  0  0  0
    7.4904   -1.0802   -0.1550 H   0  0  0  0  0  0  0  0  0  0  0  0
    6.6356    0.1423   -1.1212 H   0  0  0  0  0  0  0  0  0  0  0  0
    3.9104    2.7933    2.0258 H   0  0  0  0  0  0  0  0  0  0  0  0
    5.6268    3.1787    1.7703 H   0  0  0  0  0  0  0  0  0  0  0  0
    5.1730    1.5588    2.3442 H   0  0  0  0  0  0  0  0  0  0  0  0
  1 14  1  0  0  0  0
  1 25  1  0  0  0  0
  2 17  1  0  0  0  0
  2 25  1  0  0  0  0
  3 16  2  0  0  0  0
  4 23  1  0  0  0  0
  4 26  1  0  0  0  0
  5 24  1  0  0  0  0
  5 27  1  0  0  0  0
  6  7  1  0  0  0  0
  6  9  1  0  0  0  0
  6 19  1  0  0  0  0
  7  8  1  0  0  0  0
  7 28  1  0  0  0  0
  7 29  1  0  0  0  0
  8 11  2  0  0  0  0
  8 14  1  0  0  0  0
  9 10  1  0  0  0  0
  9 30  1  0  0  0  0
  9 31  1  0  0  0  0
 10 12  1  0  0  0  0
 10 32  1  0  0  0  0
 10 33  1  0  0  0  0
 11 13  1  0  0  0  0
 11 18  1  0  0  0  0
 12 15  1  0  0  0  0
 12 20  2  0  0  0  0
 13 16  1  0  0  0  0
 13 34  1  0  0  0  0
 13 35  1  0  0  0  0
 14 17  2  0  0  0  0
 15 16  1  0  0  0  0
 15 22  2  0  0  0  0
 17 21  1  0  0  0  0
 18 21  2  0  0  0  0
 18 36  1  0  0  0  0
 19 37  1  0  0  0  0
 19 38  1  0  0  0  0
 19 39  1  0  0  0  0
 20 23  1  0  0  0  0
 20 40  1  0  0  0  0
 21 41  1  0  0  0  0
 22 24  1  0  0  0  0
 22 42  1  0  0  0  0
 23 24  2  0  0  0  0
 25 43  1  0  0  0  0
 25 44  1  0  0  0  0
 26 45  1  0  0  0  0
 26 46  1  0  0  0  0
 26 47  1  0  0  0  0
 27 48  1  0  0  0  0
 27 49  1  0  0  0  0
 27 50  1  0  0  0  0
M  END
> <PUBCHEM_COMPOUND_CID>
72616

> <PUBCHEM_CONFORMER_RMSD>
0.8

> <PUBCHEM_CONFORMER_DIVERSEORDER>
2
13
16
1
14
3
15
4
7
10
11
12
8
5
6
9

> <PUBCHEM_MMFF94_PARTIAL_CHARGES>
31
1 -0.36
10 0.14
11 -0.14
12 -0.14
13 0.2
14 0.08
15 0.09
16 0.42
17 0.08
18 -0.15
19 0.27
2 -0.36
20 -0.15
21 -0.15
22 -0.15
23 0.08
24 0.08
25 0.56
26 0.28
27 0.28
3 -0.57
36 0.15
4 -0.36
40 0.15
41 0.15
42 0.15
5 -0.36
6 -0.81
7 0.41
8 -0.14
9 0.27

> <PUBCHEM_EFFECTIVE_ROTOR_COUNT>
3.6

> <PUBCHEM_PHARMACOPHORE_FEATURES>
9
1 1 acceptor
1 2 acceptor
1 3 acceptor
1 4 acceptor
1 5 acceptor
1 6 cation
5 1 2 14 17 25 rings
6 12 15 20 22 23 24 rings
6 8 11 14 17 18 21 rings

> <PUBCHEM_HEAVY_ATOM_COUNT>
27

> <PUBCHEM_ATOM_DEF_STEREO_COUNT>
0

> <PUBCHEM_ATOM_UDEF_STEREO_COUNT>
0

> <PUBCHEM_BOND_DEF_STEREO_COUNT>
0

> <PUBCHEM_BOND_UDEF_STEREO_COUNT>
0

> <PUBCHEM_ISOTOPIC_ATOM_COUNT>
0

> <PUBCHEM_COMPONENT_COUNT>
1

> <PUBCHEM_CACTVS_TAUTO_COUNT>
2

> <PUBCHEM_CONFORMER_ID>
00011BA800000002

> <PUBCHEM_MMFF94_ENERGY>
107.2341

> <PUBCHEM_FEATURE_SELFOVERLAP>
45.832

> <PUBCHEM_SHAPE_FINGERPRINT>
10 15 18340196476011419792
10906281 52 18190203254826508236
11045977 3 18411701002261656168
11370993 70 18410011026613376504
11578080 2 16915077750860052314
12011746 2 18408328765824015966
12107183 9 17619069430306945489
12236239 1 17967817145711064205
12403259 415 18334849498629573236
12616971 3 17275095141972617740
12633257 1 17385997429811106344
13402501 40 18411981373168203120
13533116 47 18410573964214951314
14251764 18 18260545615885430882
14341114 176 18413390955628159504
14787075 74 18343016714008069937
15196674 1 18410857642303857631
17349148 13 18113625590267636661
1813 80 16877943836721919388
18222031 100 17167580492756833940
19319366 153 13470690313028529500
20028762 73 18343299271137932238
20197701 30 18333726910353226227
20511986 3 18336531768989835999
20691752 17 17314243154621286063
21033648 29 18270956964291997602
21197605 99 18340491170122435823
21267235 1 18411427197632332086
21315764 268 18410004446972003052
21756936 100 17914885668746188204
22079108 93 18343013428416305652
23402539 116 18409445895254490479
23559900 14 18410856590100634832
2838139 119 18272364261175205005
3004659 81 18334576837294810888
335352 9 18410577284562288118
34797466 226 17489593367866385365
34934 24 18341610391987518909
350125 39 18410293597534897556
351380 180 18411419513888191178
392239 28 18342463603708848633
404807 14 16979296578216328870
4340502 62 18412261744174645336
5104073 3 18411141290681850241
513202 73 16154820216664338954
58260988 393 16200164161792669371
59755656 215 18337392643075181479
59755656 520 17749388178496009235
6004065 56 18268421524949185005
6138700 20 18334859376895948746
6328613 192 18115039584291976844
9709674 26 18410586062884733535
9981440 41 18334858350573144355

> <PUBCHEM_SHAPE_MULTIPOLES>
521.32
13.42
2.65
1.17
1.28
0.01
0.24
2.75
1.09
0.4
0.69
0.54
-0.11
1.14

> <PUBCHEM_SHAPE_SELFOVERLAP>
1135.023

> <PUBCHEM_SHAPE_VOLUME>
284.3

> <PUBCHEM_COORDINATE_TYPE>
2
5
10

$$$$
