42608160
  -OEChem-02172602323D

 39 41  0     1  0  0  0  0  0999 V2000
   -0.9125    0.5105    0.4380 C   0  0  2  0  0  0  0  0  0  0  0  0
    0.2377   -0.4749    0.2852 C   0  0  1  0  0  0  0  0  0  0  0  0
   -0.9401   -0.5314   -0.6574 C   0  0  1  0  0  0  0  0  0  0  0  0
   -0.6959    1.9798    0.1308 C   0  0  1  0  0  0  0  0  0  0  0  0
    1.5772   -0.0314   -0.2507 C   0  0  1  0  0  0  0  0  0  0  0  0
   -1.9963    0.1637    1.4431 C   0  0  0  0  0  0  0  0  0  0  0  0
   -2.0738   -1.4228   -0.3660 C   0  0  0  0  0  0  0  0  0  0  0  0
   -2.9338   -0.8123    0.7147 C   0  0  0  0  0  0  0  0  0  0  0  0
    0.5939    2.2459   -0.6609 C   0  0  0  0  0  0  0  0  0  0  0  0
    1.7748    1.4785   -0.0753 C   0  0  0  0  0  0  0  0  0  0  0  0
    2.7208   -0.7922    0.4218 C   0  0  0  0  0  0  0  0  0  0  0  0
   -1.8890    2.5888   -0.6105 C   0  0  0  0  0  0  0  0  0  0  0  0
   -2.3094   -2.6217   -0.9113 C   0  0  0  0  0  0  0  0  0  0  0  0
    2.8020   -2.2189   -0.1142 C   0  0  0  0  0  0  0  0  0  0  0  0
    4.0444   -0.0618    0.2126 C   0  0  0  0  0  0  0  0  0  0  0  0
    0.3173   -1.2539    1.0361 H   0  0  0  0  0  0  0  0  0  0  0  0
   -0.8239   -0.2131   -1.6850 H   0  0  0  0  0  0  0  0  0  0  0  0
   -0.5989    2.4985    1.0943 H   0  0  0  0  0  0  0  0  0  0  0  0
    1.6056   -0.2429   -1.3292 H   0  0  0  0  0  0  0  0  0  0  0  0
   -2.5493    1.0387    1.7993 H   0  0  0  0  0  0  0  0  0  0  0  0
   -1.5508   -0.3171    2.3226 H   0  0  0  0  0  0  0  0  0  0  0  0
   -3.7568   -0.2575    0.2493 H   0  0  0  0  0  0  0  0  0  0  0  0
   -3.3520   -1.5509    1.4052 H   0  0  0  0  0  0  0  0  0  0  0  0
    0.8127    3.3208   -0.6450 H   0  0  0  0  0  0  0  0  0  0  0  0
    0.4652    1.9680   -1.7149 H   0  0  0  0  0  0  0  0  0  0  0  0
    2.6649    1.8302   -0.6076 H   0  0  0  0  0  0  0  0  0  0  0  0
    1.8868    1.7404    0.9846 H   0  0  0  0  0  0  0  0  0  0  0  0
    2.5466   -0.8492    1.5047 H   0  0  0  0  0  0  0  0  0  0  0  0
   -2.0527    2.0966   -1.5752 H   0  0  0  0  0  0  0  0  0  0  0  0
   -1.7269    3.6557   -0.7973 H   0  0  0  0  0  0  0  0  0  0  0  0
   -2.8123    2.4905   -0.0311 H   0  0  0  0  0  0  0  0  0  0  0  0
   -1.6481   -3.0289   -1.6684 H   0  0  0  0  0  0  0  0  0  0  0  0
   -3.1659   -3.2160   -0.6120 H   0  0  0  0  0  0  0  0  0  0  0  0
    3.0098   -2.2294   -1.1899 H   0  0  0  0  0  0  0  0  0  0  0  0
    1.8708   -2.7686    0.0549 H   0  0  0  0  0  0  0  0  0  0  0  0
    3.6041   -2.7736    0.3849 H   0  0  0  0  0  0  0  0  0  0  0  0
    4.2317    0.1509   -0.8457 H   0  0  0  0  0  0  0  0  0  0  0  0
    4.8757   -0.6849    0.5641 H   0  0  0  0  0  0  0  0  0  0  0  0
    4.1076    0.8673    0.7877 H   0  0  0  0  0  0  0  0  0  0  0  0
  1  2  1  0  0  0  0
  1  3  1  0  0  0  0
  1  4  1  0  0  0  0
  1  6  1  0  0  0  0
  2  3  1  0  0  0  0
  2  5  1  0  0  0  0
  2 16  1  0  0  0  0
  3  7  1  0  0  0  0
  3 17  1  0  0  0  0
  4  9  1  0  0  0  0
  4 12  1  0  0  0  0
  4 18  1  0  0  0  0
  5 10  1  0  0  0  0
  5 11  1  0  0  0  0
  5 19  1  0  0  0  0
  6  8  1  0  0  0  0
  6 20  1  0  0  0  0
  6 21  1  0  0  0  0
  7  8  1  0  0  0  0
  7 13  2  0  0  0  0
  8 22  1  0  0  0  0
  8 23  1  0  0  0  0
  9 10  1  0  0  0  0
  9 24  1  0  0  0  0
  9 25  1  0  0  0  0
 10 26  1  0  0  0  0
 10 27  1  0  0  0  0
 11 14  1  0  0  0  0
 11 15  1  0  0  0  0
 11 28  1  0  0  0  0
 12 29  1  0  0  0  0
 12 30  1  0  0  0  0
 12 31  1  0  0  0  0
 13 32  1  0  0  0  0
 13 33  1  0  0  0  0
 14 34  1  0  0  0  0
 14 35  1  0  0  0  0
 14 36  1  0  0  0  0
 15 37  1  0  0  0  0
 15 38  1  0  0  0  0
 15 39  1  0  0  0  0
M  END
> <PUBCHEM_COMPOUND_CID>
42608160

> <PUBCHEM_CONFORMER_RMSD>
0.6

> <PUBCHEM_CONFORMER_DIVERSEORDER>
1
5
4
3
6
2

> <PUBCHEM_MMFF94_PARTIAL_CHARGES>
13
1 -0.19
13 -0.3
16 0.1
17 0.1
2 -0.19
3 -0.06
32 0.15
33 0.15
4 0.09
5 0.09
6 0.09
7 -0.18
8 0.14

> <PUBCHEM_EFFECTIVE_ROTOR_COUNT>
2.2

> <PUBCHEM_PHARMACOPHORE_FEATURES>
3
3 11 14 15 hydrophobe
6 1 2 3 6 7 8 rings
7 1 2 3 4 5 9 10 rings

> <PUBCHEM_HEAVY_ATOM_COUNT>
15

> <PUBCHEM_ATOM_DEF_STEREO_COUNT>
4

> <PUBCHEM_ATOM_UDEF_STEREO_COUNT>
1

> <PUBCHEM_BOND_DEF_STEREO_COUNT>
0

> <PUBCHEM_BOND_UDEF_STEREO_COUNT>
0

> <PUBCHEM_ISOTOPIC_ATOM_COUNT>
0

> <PUBCHEM_COMPONENT_COUNT>
1

> <PUBCHEM_CACTVS_TAUTO_COUNT>
1

> <PUBCHEM_CONFORMER_ID>
028A262000000001

> <PUBCHEM_MMFF94_ENERGY>
37.5381

> <PUBCHEM_FEATURE_SELFOVERLAP>
15.356

> <PUBCHEM_SHAPE_FINGERPRINT>
10989021 7 18337673134546572472
11321824 6 18194953054796011542
11578080 2 17701516610759455337
12138202 97 18119238476499259268
12251169 10 18202010935951330163
12423570 1 18269572588415085873
12553582 1 18337393837271515006
13024252 1 16805611330511877241
14817 1 16700924676711075801
15001771 113 18269836587148880371
16945 1 18413111662293998468
19868273 325 18334575707327924452
20361792 2 18261392290544852622
20525323 117 18261390018818246632
20645476 183 16809292383746167178
20645477 70 17687447380256255055
20871998 184 18267308637970134500
21296965 67 18335701663090343539
21501502 16 18335141998919246676
21524375 3 17468472621069558341
22112679 90 18057056902218564365
22445834 79 18341904016572317018
2334 1 17689440807473498226
23388829 49 18337954609718429500
23402539 116 18261101994306826282
23419403 2 16964288587809304084
23463225 33 18341337785253344823
23552423 10 17764593509669280495
23557571 272 18271531910083840372
23559900 14 18052250701599236762
23598291 2 18055369173561185679
23728640 28 17688007739932615690
257057 1 18340193215065371366
2748010 2 17907593431866056439
34934 24 18335135358661995096
6338986 31 18339912826742052799
69090 78 18193551173397156417
6992083 37 18270696345402292691
7364860 26 18053944240640271184
81228 2 18261950760868704297

> <PUBCHEM_SHAPE_MULTIPOLES>
308.69
4.99
2.87
0.98
3.66
0.45
0.13
-2.35
0.52
-1.03
-0.93
-0.54
-0.05
-0.3

> <PUBCHEM_SHAPE_SELFOVERLAP>
645.731

> <PUBCHEM_SHAPE_VOLUME>
175.8

> <PUBCHEM_COORDINATE_TYPE>
2
5
10

$$$$
