442655
  -OEChem-02172602453D

 37 38  0     1  0  0  0  0  0999 V2000
    1.4232   -1.8172   -1.2364 O   0  0  0  0  0  0  0  0  0  0  0  0
   -2.9618    2.0259   -0.5011 O   0  0  0  0  0  0  0  0  0  0  0  0
   -4.4007   -0.1421    0.4749 O   0  0  0  0  0  0  0  0  0  0  0  0
    4.2309    1.2411   -0.2045 N   0  0  0  0  0  0  0  0  0  0  0  0
    3.3628    0.0738   -0.3675 C   0  0  1  0  0  0  0  0  0  0  0  0
    3.4862   -0.6152    0.9833 C   0  0  0  0  0  0  0  0  0  0  0  0
    4.9234   -0.3445    1.4116 C   0  0  0  0  0  0  0  0  0  0  0  0
    5.4273    0.7391    0.4678 C   0  0  0  0  0  0  0  0  0  0  0  0
    1.9382    0.4761   -0.7070 C   0  0  0  0  0  0  0  0  0  0  0  0
    1.0164   -0.7253   -0.8459 C   0  0  0  0  0  0  0  0  0  0  0  0
   -0.4260   -0.5668   -0.4963 C   0  0  0  0  0  0  0  0  0  0  0  0
   -1.0143    0.6655   -0.6672 C   0  0  0  0  0  0  0  0  0  0  0  0
   -1.1113   -1.6588   -0.0149 C   0  0  0  0  0  0  0  0  0  0  0  0
   -2.3619    0.8139   -0.3389 C   0  0  0  0  0  0  0  0  0  0  0  0
   -2.4587   -1.5105    0.3134 C   0  0  0  0  0  0  0  0  0  0  0  0
   -3.0841   -0.2743    0.1513 C   0  0  0  0  0  0  0  0  0  0  0  0
   -2.9232    2.9220    0.6080 C   0  0  0  0  0  0  0  0  0  0  0  0
   -5.0663   -1.3026    0.9693 C   0  0  0  0  0  0  0  0  0  0  0  0
    3.7706   -0.5711   -1.1570 H   0  0  0  0  0  0  0  0  0  0  0  0
    3.2825   -1.6892    0.9243 H   0  0  0  0  0  0  0  0  0  0  0  0
    2.7980   -0.1843    1.7215 H   0  0  0  0  0  0  0  0  0  0  0  0
    4.9528   -0.0139    2.4556 H   0  0  0  0  0  0  0  0  0  0  0  0
    5.5373   -1.2475    1.3254 H   0  0  0  0  0  0  0  0  0  0  0  0
    5.9549    1.5363    1.0003 H   0  0  0  0  0  0  0  0  0  0  0  0
    6.1181    0.3155   -0.2701 H   0  0  0  0  0  0  0  0  0  0  0  0
    3.7711    1.9168    0.4073 H   0  0  0  0  0  0  0  0  0  0  0  0
    1.9164    1.0231   -1.6572 H   0  0  0  0  0  0  0  0  0  0  0  0
    1.5535    1.1401    0.0768 H   0  0  0  0  0  0  0  0  0  0  0  0
   -0.4735    1.5185   -1.0651 H   0  0  0  0  0  0  0  0  0  0  0  0
   -0.6342   -2.6247    0.1210 H   0  0  0  0  0  0  0  0  0  0  0  0
   -2.9559   -2.3978    0.6898 H   0  0  0  0  0  0  0  0  0  0  0  0
   -1.8885    3.1741    0.8610 H   0  0  0  0  0  0  0  0  0  0  0  0
   -3.4262    2.4834    1.4756 H   0  0  0  0  0  0  0  0  0  0  0  0
   -3.4478    3.8389    0.3261 H   0  0  0  0  0  0  0  0  0  0  0  0
   -5.0996   -2.0994    0.2184 H   0  0  0  0  0  0  0  0  0  0  0  0
   -6.1030   -1.0163    1.1748 H   0  0  0  0  0  0  0  0  0  0  0  0
   -4.6362   -1.6411    1.9180 H   0  0  0  0  0  0  0  0  0  0  0  0
  1 10  2  0  0  0  0
  2 14  1  0  0  0  0
  2 17  1  0  0  0  0
  3 16  1  0  0  0  0
  3 18  1  0  0  0  0
  4  5  1  0  0  0  0
  4  8  1  0  0  0  0
  4 26  1  0  0  0  0
  5  6  1  0  0  0  0
  5  9  1  0  0  0  0
  5 19  1  0  0  0  0
  6  7  1  0  0  0  0
  6 20  1  0  0  0  0
  6 21  1  0  0  0  0
  7  8  1  0  0  0  0
  7 22  1  0  0  0  0
  7 23  1  0  0  0  0
  8 24  1  0  0  0  0
  8 25  1  0  0  0  0
  9 10  1  0  0  0  0
  9 27  1  0  0  0  0
  9 28  1  0  0  0  0
 10 11  1  0  0  0  0
 11 12  2  0  0  0  0
 11 13  1  0  0  0  0
 12 14  1  0  0  0  0
 12 29  1  0  0  0  0
 13 15  2  0  0  0  0
 13 30  1  0  0  0  0
 14 16  2  0  0  0  0
 15 16  1  0  0  0  0
 15 31  1  0  0  0  0
 17 32  1  0  0  0  0
 17 33  1  0  0  0  0
 17 34  1  0  0  0  0
 18 35  1  0  0  0  0
 18 36  1  0  0  0  0
 18 37  1  0  0  0  0
M  END
> <PUBCHEM_COMPOUND_CID>
442655

> <PUBCHEM_CONFORMER_RMSD>
0.8

> <PUBCHEM_CONFORMER_DIVERSEORDER>
1
84
30
96
77
28
97
67
88
55
33
99
82
7
85
14
40
79
43
21
12
83
72
73
4
60
25
34
92
3
68
17
80
8
94
49
76
62
64
18
66
38
95
2
86
74
27
69
87
36
58
57
98
5
23
48
15
63
29
31
9
54
93
100
44
24
75
56
32
47
13
71
41
81
35
46
39
91
22
78
51
61
19
6
26
16
10
37
89
70
53
42
90
20
52
45
50
65
59
11

> <PUBCHEM_MMFF94_PARTIAL_CHARGES>
20
1 -0.57
10 0.42
11 0.09
12 -0.15
13 -0.15
14 0.08
15 -0.15
16 0.08
17 0.28
18 0.28
2 -0.36
26 0.36
29 0.15
3 -0.36
30 0.15
31 0.15
4 -0.9
5 0.27
8 0.27
9 0.06

> <PUBCHEM_EFFECTIVE_ROTOR_COUNT>
6

> <PUBCHEM_PHARMACOPHORE_FEATURES>
7
1 1 acceptor
1 2 acceptor
1 3 acceptor
1 4 cation
1 4 donor
5 4 5 6 7 8 rings
6 11 12 13 14 15 16 rings

> <PUBCHEM_HEAVY_ATOM_COUNT>
18

> <PUBCHEM_ATOM_DEF_STEREO_COUNT>
0

> <PUBCHEM_ATOM_UDEF_STEREO_COUNT>
1

> <PUBCHEM_BOND_DEF_STEREO_COUNT>
0

> <PUBCHEM_BOND_UDEF_STEREO_COUNT>
0

> <PUBCHEM_ISOTOPIC_ATOM_COUNT>
0

> <PUBCHEM_COMPONENT_COUNT>
1

> <PUBCHEM_CACTVS_TAUTO_COUNT>
2

> <PUBCHEM_CONFORMER_ID>
0006C11F00000001

> <PUBCHEM_MMFF94_ENERGY>
57.7609

> <PUBCHEM_FEATURE_SELFOVERLAP>
35.526

> <PUBCHEM_SHAPE_FINGERPRINT>
11543360 7 11455882594653579730
12107183 9 17756413873366293672
12236239 1 17458343056850240366
12251169 10 18260266382322323806
12390115 104 18129117653105362985
12403259 415 18060145301753410654
12507560 40 18341613677247357030
12555020 224 8286207111131127985
12596602 18 17748823046761914160
12670546 177 10375869693088862034
12670546 56 18113610192799291872
12892183 10 18261666017854066730
13140716 1 18122631818865225195
13533116 47 17676202485485259210
13583140 156 17895457185795942222
13675066 3 18272081687367380862
13965767 371 17537161350166549365
14178342 30 18189061901906928885
14341114 176 18259988201733124690
14420673 8 17828476969479783154
14911166 2 8935008044629441583
15219456 202 18271529684615872790
17862501 102 17748825232741979435
17959699 21 13614525168652038130
1813 80 15936691467879181998
18222031 100 14490188306967094130
18915474 69 9871458838310595544
19784866 240 15647055975537609699
200 152 14345790569623941135
20374829 77 8718827574360479260
20432913 95 15936123054447265432
20510252 161 18341621378134066857
20645477 56 17775284984369880214
20645477 70 13623532389566101514
21033648 29 17703778207356210192
21065198 48 18040994034164743744
21065199 12 18335979792514487898
22079108 93 16558752359999170119
22849339 104 8934712344684630601
22854114 59 18131636694220814814
23379529 103 11388662907908620825
23402539 116 18336258033491731127
23402655 69 12103851167927373098
23557571 272 18271825491866619925
23559900 14 18125446302418531270
26918003 58 17313103098586632115
3009799 131 18114450241790979735
42 15 17530963592183271666
4921388 177 14189282807366272613
5104073 3 18338520711919442314
5374978 207 18334298698916715546
573450 72 18113611274856808960
58807428 26 18042690498696133507
7097593 13 17968647212787091362
90316 7 17604145930792675724

> <PUBCHEM_SHAPE_MULTIPOLES>
347.84
10.94
2.08
1.08
6.77
1.19
0.1
0.96
4.59
-2.38
0.15
0.54
-0.18
0.19

> <PUBCHEM_SHAPE_SELFOVERLAP>
726.033

> <PUBCHEM_SHAPE_VOLUME>
199.4

> <PUBCHEM_COORDINATE_TYPE>
2
5
10

$$$$
