12921477
  -OEChem-02172602513D

 39 38  0     0  0  0  0  0  0999 V2000
    0.8920   -1.0086    0.3097 P   0  0  0  0  0  0  0  0  0  0  0  0
   -1.0672    1.5294   -0.0178 P   0  0  0  0  0  0  0  0  0  0  0  0
    1.8163   -0.2980   -0.8119 O   0  0  0  0  0  0  0  0  0  0  0  0
   -0.1404   -1.8799   -0.5803 O   0  0  0  0  0  0  0  0  0  0  0  0
   -1.8168    2.4470    1.0837 O   0  0  0  0  0  0  0  0  0  0  0  0
   -2.2797    0.6543   -0.6355 O   0  0  0  0  0  0  0  0  0  0  0  0
    1.6439   -1.7861    1.3512 O   0  0  0  0  0  0  0  0  0  0  0  0
   -0.2542    2.2873   -1.0272 O   0  0  0  0  0  0  0  0  0  0  0  0
   -0.1214    0.3403    0.9670 C   0  0  0  0  0  0  0  0  0  0  0  0
    2.6866    0.7478   -0.4162 C   0  0  0  0  0  0  0  0  0  0  0  0
   -1.2714   -2.4527    0.0524 C   0  0  0  0  0  0  0  0  0  0  0  0
    3.3973    1.2991   -1.6428 C   0  0  0  0  0  0  0  0  0  0  0  0
    3.6686    0.2177    0.6175 C   0  0  0  0  0  0  0  0  0  0  0  0
   -2.0871   -3.2186   -0.9781 C   0  0  0  0  0  0  0  0  0  0  0  0
   -0.8081   -3.3504    1.1895 C   0  0  0  0  0  0  0  0  0  0  0  0
   -1.0329    3.1760    2.0118 C   0  0  0  0  0  0  0  0  0  0  0  0
   -3.2257    1.2954   -1.4731 C   0  0  0  0  0  0  0  0  0  0  0  0
   -0.8224   -0.1039    1.6822 H   0  0  0  0  0  0  0  0  0  0  0  0
    0.5672    0.9346    1.5772 H   0  0  0  0  0  0  0  0  0  0  0  0
    2.1074    1.5643    0.0240 H   0  0  0  0  0  0  0  0  0  0  0  0
   -1.9089   -1.6619    0.4563 H   0  0  0  0  0  0  0  0  0  0  0  0
    4.0633    2.1270   -1.3814 H   0  0  0  0  0  0  0  0  0  0  0  0
    2.6676    1.6561   -2.3775 H   0  0  0  0  0  0  0  0  0  0  0  0
    3.9850    0.5177   -2.1373 H   0  0  0  0  0  0  0  0  0  0  0  0
    4.4971    0.9186    0.7654 H   0  0  0  0  0  0  0  0  0  0  0  0
    3.1907    0.0932    1.5933 H   0  0  0  0  0  0  0  0  0  0  0  0
    4.0826   -0.7511    0.3184 H   0  0  0  0  0  0  0  0  0  0  0  0
   -1.4908   -4.0179   -1.4320 H   0  0  0  0  0  0  0  0  0  0  0  0
   -2.3928   -2.5528   -1.7924 H   0  0  0  0  0  0  0  0  0  0  0  0
   -2.9839   -3.6592   -0.5321 H   0  0  0  0  0  0  0  0  0  0  0  0
    0.0226   -3.9941    0.8814 H   0  0  0  0  0  0  0  0  0  0  0  0
   -0.4817   -2.7644    2.0533 H   0  0  0  0  0  0  0  0  0  0  0  0
   -1.6267   -3.9878    1.5411 H   0  0  0  0  0  0  0  0  0  0  0  0
   -1.6268    4.0118    2.3898 H   0  0  0  0  0  0  0  0  0  0  0  0
   -0.7593    2.5299    2.8496 H   0  0  0  0  0  0  0  0  0  0  0  0
   -0.1323    3.5694    1.5326 H   0  0  0  0  0  0  0  0  0  0  0  0
   -3.9764    0.5629   -1.7793 H   0  0  0  0  0  0  0  0  0  0  0  0
   -3.7174    2.1070   -0.9306 H   0  0  0  0  0  0  0  0  0  0  0  0
   -2.7272    1.6899   -2.3623 H   0  0  0  0  0  0  0  0  0  0  0  0
  1  3  1  0  0  0  0
  1  4  1  0  0  0  0
  1  7  2  0  0  0  0
  1  9  1  0  0  0  0
  2  5  1  0  0  0  0
  2  6  1  0  0  0  0
  2  8  2  0  0  0  0
  2  9  1  0  0  0  0
  3 10  1  0  0  0  0
  4 11  1  0  0  0  0
  5 16  1  0  0  0  0
  6 17  1  0  0  0  0
  9 18  1  0  0  0  0
  9 19  1  0  0  0  0
 10 12  1  0  0  0  0
 10 13  1  0  0  0  0
 10 20  1  0  0  0  0
 11 14  1  0  0  0  0
 11 15  1  0  0  0  0
 11 21  1  0  0  0  0
 12 22  1  0  0  0  0
 12 23  1  0  0  0  0
 12 24  1  0  0  0  0
 13 25  1  0  0  0  0
 13 26  1  0  0  0  0
 13 27  1  0  0  0  0
 14 28  1  0  0  0  0
 14 29  1  0  0  0  0
 14 30  1  0  0  0  0
 15 31  1  0  0  0  0
 15 32  1  0  0  0  0
 15 33  1  0  0  0  0
 16 34  1  0  0  0  0
 16 35  1  0  0  0  0
 16 36  1  0  0  0  0
 17 37  1  0  0  0  0
 17 38  1  0  0  0  0
 17 39  1  0  0  0  0
M  END
> <PUBCHEM_COMPOUND_CID>
12921477

> <PUBCHEM_CONFORMER_RMSD>
0.8

> <PUBCHEM_CONFORMER_DIVERSEORDER>
1
18
40
44
26
36
2
30
41
15
35
45
39
43
12
22
32
42
46
9
33
21
38
7
11
34
8
5
17
6
23
14
29
3
13
20
37
31
24
28
27
19
16
4
25
10

> <PUBCHEM_MMFF94_PARTIAL_CHARGES>
12
1 1.24
10 0.28
11 0.28
16 0.28
17 0.28
2 1.24
3 -0.55
4 -0.55
5 -0.55
6 -0.55
7 -0.7
8 -0.7

> <PUBCHEM_EFFECTIVE_ROTOR_COUNT>
8

> <PUBCHEM_PHARMACOPHORE_FEATURES>
4
1 7 acceptor
1 8 acceptor
3 10 12 13 hydrophobe
3 11 14 15 hydrophobe

> <PUBCHEM_HEAVY_ATOM_COUNT>
17

> <PUBCHEM_ATOM_DEF_STEREO_COUNT>
0

> <PUBCHEM_ATOM_UDEF_STEREO_COUNT>
0

> <PUBCHEM_BOND_DEF_STEREO_COUNT>
0

> <PUBCHEM_BOND_UDEF_STEREO_COUNT>
0

> <PUBCHEM_ISOTOPIC_ATOM_COUNT>
0

> <PUBCHEM_COMPONENT_COUNT>
1

> <PUBCHEM_CACTVS_TAUTO_COUNT>
1

> <PUBCHEM_CONFORMER_ID>
00C52A8500000001

> <PUBCHEM_MMFF94_ENERGY>
21.5932

> <PUBCHEM_FEATURE_SELFOVERLAP>
20.297

> <PUBCHEM_SHAPE_FINGERPRINT>
14178342 30 17262700093894208771
14251745 187 17687737659614462397
15490181 8 18124884460118122987
16945 1 18272943734152793336
20711985 344 18196393587312302174
21041028 32 17546759365496905931
21524375 3 18265624173556316490
22112679 90 17263051250277937136
23419403 2 17477167975713005740
23557571 272 18269552922292652272
23558518 356 18197227957275737730
23598291 2 17335338234160964629
3060560 45 17974284318254763822
31174 14 17111032347742105753
5845 1 10063496682600359462
81228 2 18266190585221892322

> <PUBCHEM_SHAPE_MULTIPOLES>
322.34
4.69
4.29
1.67
2.51
2.63
0.18
-2.89
-2.15
-2.81
1.54
0.17
0.81
0.52

> <PUBCHEM_SHAPE_SELFOVERLAP>
572.684

> <PUBCHEM_SHAPE_VOLUME>
211.4

> <PUBCHEM_COORDINATE_TYPE>
2
5
10

$$$$
