131752220
  -OEChem-02172602523D

 39 40  0     1  0  0  0  0  0999 V2000
    1.8611   -0.2489   -0.3731 C   0  0  2  0  0  0  0  0  0  0  0  0
    2.9360    0.6880    0.2120 C   0  0  2  0  0  0  0  0  0  0  0  0
    0.5784    0.4320    0.0241 C   0  0  0  0  0  0  0  0  0  0  0  0
   -0.7172   -0.3252   -0.1133 C   0  0  1  0  0  0  0  0  0  0  0  0
    1.9494   -1.6684    0.1869 C   0  0  0  0  0  0  0  0  0  0  0  0
   -0.5739   -1.7670    0.4471 C   0  0  2  0  0  0  0  0  0  0  0  0
    0.6811   -2.4638   -0.1192 C   0  0  0  0  0  0  0  0  0  0  0  0
    2.2542    2.0571    0.3244 C   0  0  0  0  0  0  0  0  0  0  0  0
    0.8074    1.6945    0.4128 C   0  0  0  0  0  0  0  0  0  0  0  0
    4.2096    0.7287   -0.6200 C   0  0  0  0  0  0  0  0  0  0  0  0
   -1.8072   -2.6281    0.1458 C   0  0  0  0  0  0  0  0  0  0  0  0
   -1.8808    0.3864    0.5136 C   0  0  0  0  0  0  0  0  0  0  0  0
   -2.9922    0.8566   -0.0831 C   0  0  0  0  0  0  0  0  0  0  0  0
   -3.1834    0.6954   -1.5685 C   0  0  0  0  0  0  0  0  0  0  0  0
   -4.1226    1.5627    0.6104 C   0  0  0  0  0  0  0  0  0  0  0  0
    1.9141   -0.2813   -1.4695 H   0  0  0  0  0  0  0  0  0  0  0  0
    3.2069    0.3593    1.2257 H   0  0  0  0  0  0  0  0  0  0  0  0
   -0.8787   -0.4335   -1.1925 H   0  0  0  0  0  0  0  0  0  0  0  0
    2.0960   -1.6475    1.2747 H   0  0  0  0  0  0  0  0  0  0  0  0
    2.8198   -2.1815   -0.2382 H   0  0  0  0  0  0  0  0  0  0  0  0
   -0.4644   -1.7168    1.5402 H   0  0  0  0  0  0  0  0  0  0  0  0
    0.5819   -2.5936   -1.2045 H   0  0  0  0  0  0  0  0  0  0  0  0
    0.7775   -3.4666    0.3143 H   0  0  0  0  0  0  0  0  0  0  0  0
    2.4308    2.6937   -0.5490 H   0  0  0  0  0  0  0  0  0  0  0  0
    2.5890    2.5869    1.2216 H   0  0  0  0  0  0  0  0  0  0  0  0
    0.0475    2.4037    0.7081 H   0  0  0  0  0  0  0  0  0  0  0  0
    4.9365    1.4184   -0.1786 H   0  0  0  0  0  0  0  0  0  0  0  0
    4.6710   -0.2627   -0.6714 H   0  0  0  0  0  0  0  0  0  0  0  0
    4.0077    1.0613   -1.6438 H   0  0  0  0  0  0  0  0  0  0  0  0
   -1.9994   -2.6818   -0.9312 H   0  0  0  0  0  0  0  0  0  0  0  0
   -2.7032   -2.2317    0.6333 H   0  0  0  0  0  0  0  0  0  0  0  0
   -1.6646   -3.6500    0.5138 H   0  0  0  0  0  0  0  0  0  0  0  0
   -1.8072    0.5266    1.5927 H   0  0  0  0  0  0  0  0  0  0  0  0
   -3.5720   -0.3020   -1.7968 H   0  0  0  0  0  0  0  0  0  0  0  0
   -3.9044    1.4285   -1.9481 H   0  0  0  0  0  0  0  0  0  0  0  0
   -2.2616    0.8665   -2.1320 H   0  0  0  0  0  0  0  0  0  0  0  0
   -4.2347    2.5802    0.2226 H   0  0  0  0  0  0  0  0  0  0  0  0
   -5.0617    1.0213    0.4571 H   0  0  0  0  0  0  0  0  0  0  0  0
   -3.9500    1.6335    1.6894 H   0  0  0  0  0  0  0  0  0  0  0  0
  1  2  1  0  0  0  0
  1  3  1  0  0  0  0
  1  5  1  0  0  0  0
  1 16  1  0  0  0  0
  2  8  1  0  0  0  0
  2 10  1  0  0  0  0
  2 17  1  0  0  0  0
  3  4  1  0  0  0  0
  3  9  2  0  0  0  0
  4  6  1  0  0  0  0
  4 12  1  0  0  0  0
  4 18  1  0  0  0  0
  5  7  1  0  0  0  0
  5 19  1  0  0  0  0
  5 20  1  0  0  0  0
  6  7  1  0  0  0  0
  6 11  1  0  0  0  0
  6 21  1  0  0  0  0
  7 22  1  0  0  0  0
  7 23  1  0  0  0  0
  8  9  1  0  0  0  0
  8 24  1  0  0  0  0
  8 25  1  0  0  0  0
  9 26  1  0  0  0  0
 10 27  1  0  0  0  0
 10 28  1  0  0  0  0
 10 29  1  0  0  0  0
 11 30  1  0  0  0  0
 11 31  1  0  0  0  0
 11 32  1  0  0  0  0
 12 13  2  0  0  0  0
 12 33  1  0  0  0  0
 13 14  1  0  0  0  0
 13 15  1  0  0  0  0
 14 34  1  0  0  0  0
 14 35  1  0  0  0  0
 14 36  1  0  0  0  0
 15 37  1  0  0  0  0
 15 38  1  0  0  0  0
 15 39  1  0  0  0  0
M  END
> <PUBCHEM_COMPOUND_CID>
131752220

> <PUBCHEM_CONFORMER_RMSD>
0.6

> <PUBCHEM_CONFORMER_DIVERSEORDER>
1
33
16
23
12
31
26
9
22
29
13
32
7
27
28
15
8
20
30
18
21
25
17
6
3
5
2
14
10
24
11
4
19

> <PUBCHEM_MMFF94_PARTIAL_CHARGES>
11
1 0.14
12 -0.29
13 -0.28
14 0.14
15 0.14
26 0.15
3 -0.28
33 0.15
4 0.28
8 0.14
9 -0.29

> <PUBCHEM_EFFECTIVE_ROTOR_COUNT>
2.2

> <PUBCHEM_PHARMACOPHORE_FEATURES>
3
3 13 14 15 hydrophobe
5 1 2 3 8 9 rings
6 1 3 4 5 6 7 rings

> <PUBCHEM_HEAVY_ATOM_COUNT>
15

> <PUBCHEM_ATOM_DEF_STEREO_COUNT>
0

> <PUBCHEM_ATOM_UDEF_STEREO_COUNT>
4

> <PUBCHEM_BOND_DEF_STEREO_COUNT>
0

> <PUBCHEM_BOND_UDEF_STEREO_COUNT>
0

> <PUBCHEM_ISOTOPIC_ATOM_COUNT>
0

> <PUBCHEM_COMPONENT_COUNT>
1

> <PUBCHEM_CACTVS_TAUTO_COUNT>
1

> <PUBCHEM_CONFORMER_ID>
07DA611C00000001

> <PUBCHEM_MMFF94_ENERGY>
26.6088

> <PUBCHEM_FEATURE_SELFOVERLAP>
15.301

> <PUBCHEM_SHAPE_FINGERPRINT>
10411042 1 17257656612894863707
10608611 8 18196934589745522704
10967382 1 18339082579651698840
10980938 120 18338231557519885913
11206711 2 18194123146987131238
11471102 20 18338796693891515029
11543360 7 15984814982512542144
12138202 97 18334008427831236519
12654215 9 18117548527148440404
12730499 353 18043805395683078733
13140716 1 18339075012130638544
13380535 21 18408047320374031894
13380535 76 18411133645265711090
13464514 151 18342464694566991012
13583140 156 16805311215256165873
13897977 150 18410008836190598535
14251717 144 18267012869748412207
14897335 6 18410569591431783218
14911166 2 18341901783674645740
15279308 100 18409729594881991372
15775835 57 18410014316816885653
16945 1 18411418388849495776
18186145 218 18341048527980484333
18219364 16 18337402603262550969
193761 8 18410855503120624042
20510252 161 17981891053122627784
20588541 1 18410015420660488372
20645477 70 18195520403460212301
20871999 31 18193007126027153100
21501502 16 18335976553750729866
21524375 3 18334852835718740155
21639500 275 18338220571304837717
2334 1 18123187080726946936
23402539 116 18202560662112111428
23402655 69 18201153248610990149
23419403 2 17394219422717655354
23558518 356 17973726071411623200
23559900 14 18270971237017428660
23598291 2 17843673371147053261
238 59 17829567779096927949
25 1 18410575054608967861
2748010 2 18196373843205009792
350125 39 18193286418574979513
528886 8 18411979174265974576
53812653 166 18411703196768294456
63268167 104 18341047411215004345
6333449 129 18337953505721858871
633830 44 18273497874838575724
7364860 26 18269275651445560518
74978 22 18339078306238652912
77492 1 17702935912793049441
81228 2 17758109685194483659
8272917 22 18126009256972556113

> <PUBCHEM_SHAPE_MULTIPOLES>
308.69
6.21
2.69
0.9
1.07
1.61
-0.24
-3.7
-0.78
0.21
0.35
0.51
-0.18
0.06

> <PUBCHEM_SHAPE_SELFOVERLAP>
628.573

> <PUBCHEM_SHAPE_VOLUME>
177.7

> <PUBCHEM_COORDINATE_TYPE>
2
5
10

$$$$
