10323671
  -OEChem-02172602513D

 62 65  0     1  0  0  0  0  0999 V2000
    4.0675    1.3252    3.2695 F   0  0  0  0  0  0  0  0  0  0  0  0
    4.7325   -0.3230    2.0264 F   0  0  0  0  0  0  0  0  0  0  0  0
    5.6312    1.6433    1.7923 F   0  0  0  0  0  0  0  0  0  0  0  0
    1.9441    1.5479   -3.6055 F   0  0  0  0  0  0  0  0  0  0  0  0
    4.0726    1.7954   -3.2708 F   0  0  0  0  0  0  0  0  0  0  0  0
    3.1575   -0.1626   -3.0309 F   0  0  0  0  0  0  0  0  0  0  0  0
   -1.9559    1.8382   -1.0388 O   0  0  0  0  0  0  0  0  0  0  0  0
   -2.6803   -0.7506   -0.0912 N   0  0  1  0  0  0  0  0  0  0  0  0
   -0.2616   -3.5844    0.1042 N   0  0  0  0  0  0  0  0  0  0  0  0
   -1.0506    1.9810    1.1010 N   0  0  0  0  0  0  0  0  0  0  0  0
   -2.8718    0.4900    0.6960 C   0  0  2  0  0  0  0  0  0  0  0  0
   -1.7511   -1.6852    0.5285 C   0  0  0  0  0  0  0  0  0  0  0  0
   -1.2083   -2.6571   -0.5149 C   0  0  0  0  0  0  0  0  0  0  0  0
   -4.0195   -1.3447   -0.3113 C   0  0  0  0  0  0  0  0  0  0  0  0
    1.0427   -2.9350    0.2970 C   0  0  0  0  0  0  0  0  0  0  0  0
   -0.1331   -4.8043   -0.7053 C   0  0  0  0  0  0  0  0  0  0  0  0
   -4.3096    0.8557    0.4945 C   0  0  0  0  0  0  0  0  0  0  0  0
    2.0307   -3.8757    0.9888 C   0  0  0  0  0  0  0  0  0  0  0  0
    0.8165   -5.8060   -0.0466 C   0  0  0  0  0  0  0  0  0  0  0  0
   -4.9775   -0.2173   -0.0977 C   0  0  0  0  0  0  0  0  0  0  0  0
    2.1823   -5.1831    0.2198 C   0  0  0  0  0  0  0  0  0  0  0  0
   -1.9302    1.5060    0.1434 C   0  0  0  0  0  0  0  0  0  0  0  0
   -4.9833    2.0165    0.8336 C   0  0  0  0  0  0  0  0  0  0  0  0
   -6.3322   -0.1596   -0.3715 C   0  0  0  0  0  0  0  0  0  0  0  0
   -6.3500    2.0912    0.5545 C   0  0  0  0  0  0  0  0  0  0  0  0
   -7.0193    1.0113   -0.0444 C   0  0  0  0  0  0  0  0  0  0  0  0
   -0.0231    2.9565    0.8162 C   0  0  0  0  0  0  0  0  0  0  0  0
    1.2655    2.3095    0.3978 C   0  0  0  0  0  0  0  0  0  0  0  0
    1.5079    2.0469   -0.9505 C   0  0  0  0  0  0  0  0  0  0  0  0
    2.2204    1.9718    1.3568 C   0  0  0  0  0  0  0  0  0  0  0  0
    2.7052    1.4464   -1.3397 C   0  0  0  0  0  0  0  0  0  0  0  0
    3.4177    1.3714    0.9676 C   0  0  0  0  0  0  0  0  0  0  0  0
    3.6601    1.1087   -0.3807 C   0  0  0  0  0  0  0  0  0  0  0  0
    4.4388    1.0105    1.9933 C   0  0  0  0  0  0  0  0  0  0  0  0
    2.9640    1.1652   -2.7815 C   0  0  0  0  0  0  0  0  0  0  0  0
   -2.7234    0.3066    1.7679 H   0  0  0  0  0  0  0  0  0  0  0  0
   -0.9169   -1.1101    0.9450 H   0  0  0  0  0  0  0  0  0  0  0  0
   -2.2093   -2.2173    1.3726 H   0  0  0  0  0  0  0  0  0  0  0  0
   -2.0582   -3.2214   -0.9211 H   0  0  0  0  0  0  0  0  0  0  0  0
   -0.7555   -2.1236   -1.3616 H   0  0  0  0  0  0  0  0  0  0  0  0
   -4.0928   -1.7338   -1.3316 H   0  0  0  0  0  0  0  0  0  0  0  0
   -4.2515   -2.1400    0.4070 H   0  0  0  0  0  0  0  0  0  0  0  0
    0.9559   -2.0446    0.9277 H   0  0  0  0  0  0  0  0  0  0  0  0
    1.4633   -2.6094   -0.6640 H   0  0  0  0  0  0  0  0  0  0  0  0
    0.2240   -4.5656   -1.7158 H   0  0  0  0  0  0  0  0  0  0  0  0
   -1.1116   -5.2888   -0.8104 H   0  0  0  0  0  0  0  0  0  0  0  0
    1.6838   -4.0885    2.0079 H   0  0  0  0  0  0  0  0  0  0  0  0
    3.0069   -3.3857    1.0793 H   0  0  0  0  0  0  0  0  0  0  0  0
    0.9309   -6.6858   -0.6898 H   0  0  0  0  0  0  0  0  0  0  0  0
    0.3835   -6.1554    0.8994 H   0  0  0  0  0  0  0  0  0  0  0  0
    2.6889   -4.9904   -0.7338 H   0  0  0  0  0  0  0  0  0  0  0  0
    2.8108   -5.8809    0.7838 H   0  0  0  0  0  0  0  0  0  0  0  0
   -4.4711    2.8483    1.3047 H   0  0  0  0  0  0  0  0  0  0  0  0
   -6.8511   -0.9971   -0.8245 H   0  0  0  0  0  0  0  0  0  0  0  0
   -1.0998    1.6223    2.0499 H   0  0  0  0  0  0  0  0  0  0  0  0
   -6.9033    2.9917    0.8070 H   0  0  0  0  0  0  0  0  0  0  0  0
   -8.0837    1.0872   -0.2493 H   0  0  0  0  0  0  0  0  0  0  0  0
   -0.3775    3.6408    0.0361 H   0  0  0  0  0  0  0  0  0  0  0  0
    0.1228    3.5557    1.7221 H   0  0  0  0  0  0  0  0  0  0  0  0
    0.7619    2.3144   -1.6943 H   0  0  0  0  0  0  0  0  0  0  0  0
    2.0241    2.1777    2.4061 H   0  0  0  0  0  0  0  0  0  0  0  0
    4.5933    0.6401   -0.6842 H   0  0  0  0  0  0  0  0  0  0  0  0
  1 34  1  0  0  0  0
  2 34  1  0  0  0  0
  3 34  1  0  0  0  0
  4 35  1  0  0  0  0
  5 35  1  0  0  0  0
  6 35  1  0  0  0  0
  7 22  2  0  0  0  0
  8 11  1  0  0  0  0
  8 12  1  0  0  0  0
  8 14  1  0  0  0  0
  9 13  1  0  0  0  0
  9 15  1  0  0  0  0
  9 16  1  0  0  0  0
 10 22  1  0  0  0  0
 10 27  1  0  0  0  0
 10 55  1  0  0  0  0
 11 17  1  0  0  0  0
 11 22  1  0  0  0  0
 11 36  1  0  0  0  0
 12 13  1  0  0  0  0
 12 37  1  0  0  0  0
 12 38  1  0  0  0  0
 13 39  1  0  0  0  0
 13 40  1  0  0  0  0
 14 20  1  0  0  0  0
 14 41  1  0  0  0  0
 14 42  1  0  0  0  0
 15 18  1  0  0  0  0
 15 43  1  0  0  0  0
 15 44  1  0  0  0  0
 16 19  1  0  0  0  0
 16 45  1  0  0  0  0
 16 46  1  0  0  0  0
 17 20  1  0  0  0  0
 17 23  2  0  0  0  0
 18 21  1  0  0  0  0
 18 47  1  0  0  0  0
 18 48  1  0  0  0  0
 19 21  1  0  0  0  0
 19 49  1  0  0  0  0
 19 50  1  0  0  0  0
 20 24  2  0  0  0  0
 21 51  1  0  0  0  0
 21 52  1  0  0  0  0
 23 25  1  0  0  0  0
 23 53  1  0  0  0  0
 24 26  1  0  0  0  0
 24 54  1  0  0  0  0
 25 26  2  0  0  0  0
 25 56  1  0  0  0  0
 26 57  1  0  0  0  0
 27 28  1  0  0  0  0
 27 58  1  0  0  0  0
 27 59  1  0  0  0  0
 28 29  2  0  0  0  0
 28 30  1  0  0  0  0
 29 31  1  0  0  0  0
 29 60  1  0  0  0  0
 30 32  2  0  0  0  0
 30 61  1  0  0  0  0
 31 33  2  0  0  0  0
 31 35  1  0  0  0  0
 32 33  1  0  0  0  0
 32 34  1  0  0  0  0
 33 62  1  0  0  0  0
M  END
> <PUBCHEM_COMPOUND_CID>
10323671

> <PUBCHEM_CONFORMER_RMSD>
1.4

> <PUBCHEM_CONFORMER_DIVERSEORDER>
1
77
24
15
31
57
56
62
11
35
5
19
48
63
55
60
25
29
22
50
76
44
7
26
73
43
8
14
46
39
47
34
74
36
40
12
49
38
67
42
52
2
13
4
69
27
80
33
30
51
53
41
78
37
23
6
16
68
21
32
20
45
28
70
3
79
58
71
17
18
72
54
75
61
66
10
64
59
9
65

> <PUBCHEM_MMFF94_PARTIAL_CHARGES>
40
1 -0.34
10 -0.73
11 0.47
12 0.27
13 0.27
14 0.41
15 0.27
16 0.27
17 -0.14
2 -0.34
20 -0.14
22 0.57
23 -0.15
24 -0.15
25 -0.15
26 -0.15
27 0.44
28 -0.14
29 -0.15
3 -0.34
30 -0.15
31 -0.14
32 -0.14
33 -0.15
34 1.16
35 1.16
4 -0.34
5 -0.34
53 0.15
54 0.15
55 0.37
56 0.15
57 0.15
6 -0.34
60 0.15
61 0.15
62 0.15
7 -0.57
8 -0.81
9 -0.81

> <PUBCHEM_EFFECTIVE_ROTOR_COUNT>
10.8

> <PUBCHEM_PHARMACOPHORE_FEATURES>
8
1 10 donor
1 7 acceptor
1 8 cation
1 9 cation
5 8 11 14 17 20 rings
6 17 20 23 24 25 26 rings
6 28 29 30 31 32 33 rings
6 9 15 16 18 19 21 rings

> <PUBCHEM_HEAVY_ATOM_COUNT>
35

> <PUBCHEM_ATOM_DEF_STEREO_COUNT>
0

> <PUBCHEM_ATOM_UDEF_STEREO_COUNT>
1

> <PUBCHEM_BOND_DEF_STEREO_COUNT>
0

> <PUBCHEM_BOND_UDEF_STEREO_COUNT>
0

> <PUBCHEM_ISOTOPIC_ATOM_COUNT>
0

> <PUBCHEM_COMPONENT_COUNT>
1

> <PUBCHEM_CACTVS_TAUTO_COUNT>
2

> <PUBCHEM_CONFORMER_ID>
009D86D700000001

> <PUBCHEM_MMFF94_ENERGY>
59.354

> <PUBCHEM_FEATURE_SELFOVERLAP>
40.676

> <PUBCHEM_SHAPE_FINGERPRINT>
11093857 51 18261971647637914054
12422481 6 17968646125975833401
12788726 201 17468771031113204502
1361 2 18340196423886509731
13726171 33 17829080884224657333
14028597 1 17632307783103833371
14114211 68 18045817583022715375
14863182 85 18408882911004634352
14918310 93 17676770860726232118
15264996 154 18263654982597061119
15320294 125 18042942377074320042
15968369 26 18334017181349489283
20771845 171 17968110702979288037
23559900 14 18263930938877899875
3298306 158 18411145753379749423
513532 50 17918277528108169358
5265222 85 18265057001508326364
5385378 56 18341898442606808257
57527452 28 18334006182180604416
6679774 75 18186526518325527914
9961470 85 18341884212784635674
9981440 41 18411134784118243771

> <PUBCHEM_SHAPE_MULTIPOLES>
655.83
12.64
6.34
2.37
17.08
13.56
-1.74
-8.35
2.34
-5.45
0.42
-5.31
-2.1
-0.86

> <PUBCHEM_SHAPE_SELFOVERLAP>
1407.265

> <PUBCHEM_SHAPE_VOLUME>
365.2

> <PUBCHEM_COORDINATE_TYPE>
2
5
10

$$$$
