10452382
  -OEChem-02172602513D

 54 56  0     1  0  0  0  0  0999 V2000
    2.1559   -1.9568   -0.1898 S   0  0  0  0  0  0  0  0  0  0  0  0
   -5.3914    0.2091   -0.0914 O   0  0  0  0  0  0  0  0  0  0  0  0
   -3.0911    3.7898   -0.9328 O   0  0  0  0  0  0  0  0  0  0  0  0
    2.7068   -2.9893   -1.0463 O   0  0  0  0  0  0  0  0  0  0  0  0
    1.6368   -2.2931    1.1222 O   0  0  0  0  0  0  0  0  0  0  0  0
   -0.3868   -1.4688   -0.8213 N   0  0  0  0  0  0  0  0  0  0  0  0
    0.9879   -1.0750   -1.0572 N   0  0  0  0  0  0  0  0  0  0  0  0
   -3.0410    0.2762    0.5307 C   0  0  1  0  0  0  0  0  0  0  0  0
   -2.6997   -0.6296   -0.6747 C   0  0  2  0  0  0  0  0  0  0  0  0
   -2.6679    1.7642    0.2585 C   0  0  1  0  0  0  0  0  0  0  0  0
   -1.1566    1.8999   -0.1113 C   0  0  2  0  0  0  0  0  0  0  0  0
   -4.4839    0.0199    0.9929 C   0  0  2  0  0  0  0  0  0  0  0  0
   -3.2092   -2.0710   -0.5013 C   0  0  0  0  0  0  0  0  0  0  0  0
   -0.7297    0.9273   -1.2234 C   0  0  0  0  0  0  0  0  0  0  0  0
   -1.2079   -0.4748   -0.9076 C   0  0  0  0  0  0  0  0  0  0  0  0
   -4.6349   -1.4217    1.5100 C   0  0  0  0  0  0  0  0  0  0  0  0
   -3.5948   -2.3966    0.9389 C   0  0  0  0  0  0  0  0  0  0  0  0
   -3.5348    2.4550   -0.8021 C   0  0  0  0  0  0  0  0  0  0  0  0
   -0.2561    1.7301    1.1210 C   0  0  0  0  0  0  0  0  0  0  0  0
    3.3991   -0.7215    0.0380 C   0  0  0  0  0  0  0  0  0  0  0  0
    3.3538    0.0829    1.1638 C   0  0  0  0  0  0  0  0  0  0  0  0
    4.3953   -0.5805   -0.9129 C   0  0  0  0  0  0  0  0  0  0  0  0
    4.3344    1.0583    1.3440 C   0  0  0  0  0  0  0  0  0  0  0  0
    5.3760    0.3949   -0.7325 C   0  0  0  0  0  0  0  0  0  0  0  0
    5.3454    1.2143    0.3960 C   0  0  0  0  0  0  0  0  0  0  0  0
    6.3945    2.2568    0.5888 C   0  0  0  0  0  0  0  0  0  0  0  0
   -2.4027   -0.0243    1.3748 H   0  0  0  0  0  0  0  0  0  0  0  0
   -3.1736   -0.2422   -1.5860 H   0  0  0  0  0  0  0  0  0  0  0  0
   -2.8214    2.3231    1.1930 H   0  0  0  0  0  0  0  0  0  0  0  0
   -0.9552    2.9155   -0.4734 H   0  0  0  0  0  0  0  0  0  0  0  0
   -4.7653    0.7263    1.7819 H   0  0  0  0  0  0  0  0  0  0  0  0
   -2.4892   -2.8105   -0.8671 H   0  0  0  0  0  0  0  0  0  0  0  0
   -4.1048   -2.1978   -1.1245 H   0  0  0  0  0  0  0  0  0  0  0  0
    0.3412    1.0336   -1.4031 H   0  0  0  0  0  0  0  0  0  0  0  0
   -1.2153    1.2174   -2.1638 H   0  0  0  0  0  0  0  0  0  0  0  0
   -5.6400   -1.8003    1.2872 H   0  0  0  0  0  0  0  0  0  0  0  0
   -4.5306   -1.4273    2.6020 H   0  0  0  0  0  0  0  0  0  0  0  0
   -3.9838   -3.4196    1.0011 H   0  0  0  0  0  0  0  0  0  0  0  0
   -2.6931   -2.3742    1.5640 H   0  0  0  0  0  0  0  0  0  0  0  0
   -4.5823    2.4896   -0.4928 H   0  0  0  0  0  0  0  0  0  0  0  0
   -3.4692    1.9700   -1.7793 H   0  0  0  0  0  0  0  0  0  0  0  0
   -0.5478    2.4265    1.9140 H   0  0  0  0  0  0  0  0  0  0  0  0
   -0.2908    0.7159    1.5292 H   0  0  0  0  0  0  0  0  0  0  0  0
    0.7861    1.9459    0.8620 H   0  0  0  0  0  0  0  0  0  0  0  0
   -6.2925    0.0983    0.2569 H   0  0  0  0  0  0  0  0  0  0  0  0
   -3.6514    4.2158   -1.6036 H   0  0  0  0  0  0  0  0  0  0  0  0
    1.1825   -0.9669   -2.0626 H   0  0  0  0  0  0  0  0  0  0  0  0
    2.5707   -0.0177    1.9089 H   0  0  0  0  0  0  0  0  0  0  0  0
    4.4312   -1.2036   -1.8012 H   0  0  0  0  0  0  0  0  0  0  0  0
    4.2978    1.6931    2.2254 H   0  0  0  0  0  0  0  0  0  0  0  0
    6.1568    0.5092   -1.4798 H   0  0  0  0  0  0  0  0  0  0  0  0
    7.3458    1.9473    0.1428 H   0  0  0  0  0  0  0  0  0  0  0  0
    6.0792    3.1970    0.1255 H   0  0  0  0  0  0  0  0  0  0  0  0
    6.5831    2.4358    1.6529 H   0  0  0  0  0  0  0  0  0  0  0  0
  1  4  2  0  0  0  0
  1  5  2  0  0  0  0
  1  7  1  0  0  0  0
  1 20  1  0  0  0  0
  2 12  1  0  0  0  0
  2 45  1  0  0  0  0
  3 18  1  0  0  0  0
  3 46  1  0  0  0  0
  6  7  1  0  0  0  0
  6 15  2  0  0  0  0
  7 47  1  0  0  0  0
  8  9  1  0  0  0  0
  8 10  1  0  0  0  0
  8 12  1  0  0  0  0
  8 27  1  0  0  0  0
  9 13  1  0  0  0  0
  9 15  1  0  0  0  0
  9 28  1  0  0  0  0
 10 11  1  0  0  0  0
 10 18  1  0  0  0  0
 10 29  1  0  0  0  0
 11 14  1  0  0  0  0
 11 19  1  0  0  0  0
 11 30  1  0  0  0  0
 12 16  1  0  0  0  0
 12 31  1  0  0  0  0
 13 17  1  0  0  0  0
 13 32  1  0  0  0  0
 13 33  1  0  0  0  0
 14 15  1  0  0  0  0
 14 34  1  0  0  0  0
 14 35  1  0  0  0  0
 16 17  1  0  0  0  0
 16 36  1  0  0  0  0
 16 37  1  0  0  0  0
 17 38  1  0  0  0  0
 17 39  1  0  0  0  0
 18 40  1  0  0  0  0
 18 41  1  0  0  0  0
 19 42  1  0  0  0  0
 19 43  1  0  0  0  0
 19 44  1  0  0  0  0
 20 21  2  0  0  0  0
 20 22  1  0  0  0  0
 21 23  1  0  0  0  0
 21 48  1  0  0  0  0
 22 24  2  0  0  0  0
 22 49  1  0  0  0  0
 23 25  2  0  0  0  0
 23 50  1  0  0  0  0
 24 25  1  0  0  0  0
 24 51  1  0  0  0  0
 25 26  1  0  0  0  0
 26 52  1  0  0  0  0
 26 53  1  0  0  0  0
 26 54  1  0  0  0  0
M  END
> <PUBCHEM_COMPOUND_CID>
10452382

> <PUBCHEM_CONFORMER_RMSD>
0.8

> <PUBCHEM_CONFORMER_DIVERSEORDER>
3
25
15
24
27
40
30
16
54
51
49
53
20
23
38
37
21
31
12
45
42
10
26
7
36
8
39
18
41
52
46
28
43
50
14
13
32
2
44
5
48
35
22
34
4
19
47
1
33
6
29
9
11
17

> <PUBCHEM_MMFF94_PARTIAL_CHARGES>
26
1 1.45
12 0.28
14 0.06
15 0.33
18 0.28
2 -0.68
20 -0.01
21 -0.15
22 -0.15
23 -0.15
24 -0.15
25 -0.14
26 0.14
3 -0.68
4 -0.65
45 0.4
46 0.4
47 0.42
48 0.15
49 0.15
5 -0.65
50 0.15
51 0.15
6 -0.43
7 -0.58
9 0.06

> <PUBCHEM_EFFECTIVE_ROTOR_COUNT>
5.4

> <PUBCHEM_PHARMACOPHORE_FEATURES>
11
1 2 acceptor
1 2 donor
1 3 acceptor
1 3 donor
1 4 acceptor
1 5 acceptor
1 6 acceptor
1 7 donor
6 20 21 22 23 24 25 rings
6 8 9 10 11 14 15 rings
6 8 9 12 13 16 17 rings

> <PUBCHEM_HEAVY_ATOM_COUNT>
26

> <PUBCHEM_ATOM_DEF_STEREO_COUNT>
5

> <PUBCHEM_ATOM_UDEF_STEREO_COUNT>
0

> <PUBCHEM_BOND_DEF_STEREO_COUNT>
1

> <PUBCHEM_BOND_UDEF_STEREO_COUNT>
0

> <PUBCHEM_ISOTOPIC_ATOM_COUNT>
0

> <PUBCHEM_COMPONENT_COUNT>
1

> <PUBCHEM_CACTVS_TAUTO_COUNT>
1

> <PUBCHEM_CONFORMER_ID>
009F7D9E00000003

> <PUBCHEM_MMFF94_ENERGY>
62.8128

> <PUBCHEM_FEATURE_SELFOVERLAP>
55.861

> <PUBCHEM_SHAPE_FINGERPRINT>
10290309 65 18341052930148389702
10319926 262 18262790749667409866
10366900 7 18342166800030826947
10498660 4 18271802398450201320
10670039 82 18336554880488716956
10675989 125 17402320478378862965
11014199 57 17623563563748021183
11112241 14 16485258855341251536
11370993 144 17916037775862644795
11595378 159 18040148505085242266
12596602 18 17458623467028691200
12633257 1 15791740693884162596
12925494 130 18340485539294061081
13224815 77 18411134719213127070
13402501 40 18342178916186095866
13726171 33 18412547596077187016
14081887 123 18335421274730264211
14223421 5 18340207380015577014
14341114 176 18411989061259688210
14341114 328 18408320008148257778
14787075 74 18336267954412517034
14840074 17 18272369810642106391
15163728 17 12533691941972969443
151778 21 17489310746260533718
15183329 4 10447664469282303970
15575132 122 18409448120032141348
17349148 13 13551189974708499334
1813 80 17603591845761990167
19784866 170 18342178890158010670
20511986 3 17241032237415585449
21304303 282 14564739545847628247
23559900 14 17908983210168942878
2747138 104 18189067545209392354
392239 28 18189058753537899074
469060 322 17967818292124278418
497634 4 16773791545845776207
5104073 3 18335701581644298930
550186 72 18336264655730739940
6442390 28 18411985797517612174
7808743 9 18270111465799434464

> <PUBCHEM_SHAPE_MULTIPOLES>
505.48
13.01
3.26
1.34
11.41
0.74
0.16
3.34
2.66
-1.49
-0.46
-0.11
-0.09
1.94

> <PUBCHEM_SHAPE_SELFOVERLAP>
1043.482

> <PUBCHEM_SHAPE_VOLUME>
290.5

> <PUBCHEM_COORDINATE_TYPE>
2
5
10

$$$$
