5310981
  -OEChem-02172602423D

 27 28  0     0  0  0  0  0  0999 V2000
   -4.6523    1.0984   -0.1985 F   0  0  0  0  0  0  0  0  0  0  0  0
    1.1900   -0.2549   -0.4231 N   0  0  0  0  0  0  0  0  0  0  0  0
    0.4870    1.6427    0.4918 N   0  0  0  0  0  0  0  0  0  0  0  0
    5.7402   -1.0601    0.0521 N   0  0  0  0  0  0  0  0  0  0  0  0
    2.3028    0.5242   -0.2757 C   0  0  0  0  0  0  0  0  0  0  0  0
    3.6443    0.0785   -0.6815 C   0  0  0  0  0  0  0  0  0  0  0  0
    0.1242    0.4584    0.0511 C   0  0  0  0  0  0  0  0  0  0  0  0
    4.3988   -0.6492    0.4524 C   0  0  0  0  0  0  0  0  0  0  0  0
   -1.2166   -0.0736    0.0460 C   0  0  0  0  0  0  0  0  0  0  0  0
    1.8437    1.6902    0.2904 C   0  0  0  0  0  0  0  0  0  0  0  0
   -2.3078    0.7868   -0.0760 C   0  0  0  0  0  0  0  0  0  0  0  0
   -1.4219   -1.4484    0.1621 C   0  0  0  0  0  0  0  0  0  0  0  0
   -3.6043    0.2722   -0.0819 C   0  0  0  0  0  0  0  0  0  0  0  0
   -2.7184   -1.9627    0.1563 C   0  0  0  0  0  0  0  0  0  0  0  0
   -3.8096   -1.1025    0.0344 C   0  0  0  0  0  0  0  0  0  0  0  0
    3.5710   -0.5832   -1.5544 H   0  0  0  0  0  0  0  0  0  0  0  0
    4.2301    0.9489   -1.0046 H   0  0  0  0  0  0  0  0  0  0  0  0
    1.1684   -1.1837   -0.8236 H   0  0  0  0  0  0  0  0  0  0  0  0
    3.8363   -1.5357    0.7677 H   0  0  0  0  0  0  0  0  0  0  0  0
    4.4775    0.0036    1.3296 H   0  0  0  0  0  0  0  0  0  0  0  0
    2.4196    2.5623    0.5649 H   0  0  0  0  0  0  0  0  0  0  0  0
   -2.1705    1.8612   -0.1707 H   0  0  0  0  0  0  0  0  0  0  0  0
   -0.5948   -2.1453    0.2720 H   0  0  0  0  0  0  0  0  0  0  0  0
   -2.8789   -3.0329    0.2499 H   0  0  0  0  0  0  0  0  0  0  0  0
    6.2708   -0.2421   -0.2456 H   0  0  0  0  0  0  0  0  0  0  0  0
    5.6794   -1.6646   -0.7667 H   0  0  0  0  0  0  0  0  0  0  0  0
   -4.8192   -1.5027    0.0307 H   0  0  0  0  0  0  0  0  0  0  0  0
  1 13  1  0  0  0  0
  2  5  1  0  0  0  0
  2  7  1  0  0  0  0
  2 18  1  0  0  0  0
  3  7  2  0  0  0  0
  3 10  1  0  0  0  0
  4  8  1  0  0  0  0
  4 25  1  0  0  0  0
  4 26  1  0  0  0  0
  5  6  1  0  0  0  0
  5 10  2  0  0  0  0
  6  8  1  0  0  0  0
  6 16  1  0  0  0  0
  6 17  1  0  0  0  0
  7  9  1  0  0  0  0
  8 19  1  0  0  0  0
  8 20  1  0  0  0  0
  9 11  2  0  0  0  0
  9 12  1  0  0  0  0
 10 21  1  0  0  0  0
 11 13  1  0  0  0  0
 11 22  1  0  0  0  0
 12 14  2  0  0  0  0
 12 23  1  0  0  0  0
 13 15  2  0  0  0  0
 14 15  1  0  0  0  0
 14 24  1  0  0  0  0
 15 27  1  0  0  0  0
M  END
> <PUBCHEM_COMPOUND_CID>
5310981

> <PUBCHEM_CONFORMER_RMSD>
0.6

> <PUBCHEM_CONFORMER_DIVERSEORDER>
3
14
20
26
16
22
27
10
17
6
18
28
24
19
8
4
25
21
7
23
5
9
2
11
13
1
15
12

> <PUBCHEM_MMFF94_PARTIAL_CHARGES>
23
1 -0.19
10 0.08
11 -0.15
12 -0.15
13 0.19
14 -0.15
15 -0.15
18 0.27
2 0.03
21 0.15
22 0.15
23 0.15
24 0.15
25 0.36
26 0.36
27 0.15
3 -0.57
4 -0.99
5 -0.33
6 0.18
7 0.13
8 0.27
9 0.05

> <PUBCHEM_EFFECTIVE_ROTOR_COUNT>
3

> <PUBCHEM_PHARMACOPHORE_FEATURES>
6
1 2 donor
1 4 cation
1 4 donor
3 2 3 7 cation
5 2 3 5 7 10 rings
6 9 11 12 13 14 15 rings

> <PUBCHEM_HEAVY_ATOM_COUNT>
15

> <PUBCHEM_ATOM_DEF_STEREO_COUNT>
0

> <PUBCHEM_ATOM_UDEF_STEREO_COUNT>
0

> <PUBCHEM_BOND_DEF_STEREO_COUNT>
0

> <PUBCHEM_BOND_UDEF_STEREO_COUNT>
0

> <PUBCHEM_ISOTOPIC_ATOM_COUNT>
0

> <PUBCHEM_COMPONENT_COUNT>
1

> <PUBCHEM_CACTVS_TAUTO_COUNT>
2

> <PUBCHEM_CONFORMER_ID>
00510A0500000003

> <PUBCHEM_MMFF94_ENERGY>
18.3648

> <PUBCHEM_FEATURE_SELFOVERLAP>
30.446

> <PUBCHEM_SHAPE_FINGERPRINT>
10062212 137 18409442600598310515
10130415 120 18342460356760960784
10465860 250 18343863312254905312
10608611 8 18269271438494275217
11401426 45 17989202633601153733
12032990 46 18411704330354758888
124424 183 18413107268658401757
12555020 224 18410001144305644143
13288520 33 18410294713545918822
13296908 3 18339923843354045113
13675066 3 18202278139068051704
13690532 89 18410856572535247466
13760787 19 18187652426947982598
14115302 16 18187937183121335020
14251731 8 18334857195157778190
14252887 29 17417821621503920550
15099037 51 18411418393228755255
15196674 1 18410856606889711078
15219456 202 18199186363726029145
15375358 24 17917715686203575798
17804303 29 18410013260075537229
17834072 8 18333726897104230263
18186145 218 14634871993735272532
1986462 14 18334576880054417503
200 152 17489304209367086397
20201158 50 18273221901883327975
20279233 1 17775573043378397030
20281475 54 18335705013011905606
20374829 77 18408321077711093602
20645477 70 18272936059072512086
21267235 1 18336553793297669859
21501925 9 18272650181991699512
221490 88 18191312786897926290
22485316 2 18409448115799977000
23402539 116 18272644628472593365
23403322 49 18410857663726329774
23559900 14 18412822512912538328
26918003 58 18202562869698551042
3004659 81 18187650185428884158
335352 9 18410855439091428973
42 15 18409729569191100874
4214541 1 18408886243424541069
4921388 177 16009322014173916395
5104073 3 18342181123714708513
559249 180 18334571309181563418
573450 72 18334569144533526354
58051976 100 18186238437308488670
633830 44 16660645193255582716
6430166 295 18408321060446899917
76465 3 18129373976838010519
77779 3 18335142050163084836
81228 2 17629507236055589320
8809292 202 18336269036728340931
9709674 26 18120654892347109683

> <PUBCHEM_SHAPE_MULTIPOLES>
286.48
9.6
1.69
0.68
6.68
0.11
0.01
2.8
0.17
-0.53
-0.19
0.2
-0.01
0.1

> <PUBCHEM_SHAPE_SELFOVERLAP>
612.57

> <PUBCHEM_SHAPE_VOLUME>
160.6

> <PUBCHEM_COORDINATE_TYPE>
2
5
10

$$$$
