120700
  -OEChem-02172602553D

 26 25  0     1  0  0  0  0  0999 V2000
   -0.4469   -1.4010   -1.0826 O   0  0  0  0  0  0  0  0  0  0  0  0
    0.4376    1.4192    1.0586 O   0  0  0  0  0  0  0  0  0  0  0  0
   -2.6594   -1.4477    0.5835 O   0  0  0  0  0  0  0  0  0  0  0  0
    2.6693    1.4551   -0.5830 O   0  0  0  0  0  0  0  0  0  0  0  0
   -3.9444    0.8806   -0.1244 O   0  0  0  0  0  0  0  0  0  0  0  0
    3.9290   -0.9398    0.1453 O   0  0  0  0  0  0  0  0  0  0  0  0
   -0.4533   -0.6050    0.1020 C   0  0  1  0  0  0  0  0  0  0  0  0
    0.4586    0.6135   -0.1191 C   0  0  2  0  0  0  0  0  0  0  0  0
   -1.9039   -0.2347    0.4709 C   0  0  1  0  0  0  0  0  0  0  0  0
    1.9138    0.2425   -0.4691 C   0  0  2  0  0  0  0  0  0  0  0  0
   -2.6108    0.6372   -0.5646 C   0  0  0  0  0  0  0  0  0  0  0  0
    2.6103   -0.6199    0.5825 C   0  0  0  0  0  0  0  0  0  0  0  0
   -0.0699   -1.2351    0.9116 H   0  0  0  0  0  0  0  0  0  0  0  0
    0.0783    1.2348   -0.9383 H   0  0  0  0  0  0  0  0  0  0  0  0
   -1.9437    0.2566    1.4499 H   0  0  0  0  0  0  0  0  0  0  0  0
    1.9520   -0.2528   -1.4463 H   0  0  0  0  0  0  0  0  0  0  0  0
   -2.6770    0.1455   -1.5398 H   0  0  0  0  0  0  0  0  0  0  0  0
   -2.1228    1.6071   -0.6860 H   0  0  0  0  0  0  0  0  0  0  0  0
    2.0906   -1.5680    0.7371 H   0  0  0  0  0  0  0  0  0  0  0  0
    2.6945   -0.1026    1.5439 H   0  0  0  0  0  0  0  0  0  0  0  0
   -0.6760   -0.8293   -1.8346 H   0  0  0  0  0  0  0  0  0  0  0  0
    1.0277    2.1766    0.9040 H   0  0  0  0  0  0  0  0  0  0  0  0
   -2.2404   -1.9894    1.2738 H   0  0  0  0  0  0  0  0  0  0  0  0
    3.5195    1.2332   -0.9987 H   0  0  0  0  0  0  0  0  0  0  0  0
   -4.3767    0.0165   -0.0139 H   0  0  0  0  0  0  0  0  0  0  0  0
    4.4559   -0.1238    0.1810 H   0  0  0  0  0  0  0  0  0  0  0  0
  1  7  1  0  0  0  0
  1 21  1  0  0  0  0
  2  8  1  0  0  0  0
  2 22  1  0  0  0  0
  3  9  1  0  0  0  0
  3 23  1  0  0  0  0
  4 10  1  0  0  0  0
  4 24  1  0  0  0  0
  5 11  1  0  0  0  0
  5 25  1  0  0  0  0
  6 12  1  0  0  0  0
  6 26  1  0  0  0  0
  7  8  1  0  0  0  0
  7  9  1  0  0  0  0
  7 13  1  0  0  0  0
  8 10  1  0  0  0  0
  8 14  1  0  0  0  0
  9 11  1  0  0  0  0
  9 15  1  0  0  0  0
 10 12  1  0  0  0  0
 10 16  1  0  0  0  0
 11 17  1  0  0  0  0
 11 18  1  0  0  0  0
 12 19  1  0  0  0  0
 12 20  1  0  0  0  0
M  END
> <PUBCHEM_COMPOUND_CID>
120700

> <PUBCHEM_CONFORMER_RMSD>
0.6

> <PUBCHEM_CONFORMER_DIVERSEORDER>
1
7
20
31
15
30
32
17
5
14
25
4
12
27
23
2
28
19
11
24
3
33
6
8
21
29
18
22
16
9
13
26
10

> <PUBCHEM_MMFF94_PARTIAL_CHARGES>
18
1 -0.68
10 0.28
11 0.28
12 0.28
2 -0.68
21 0.4
22 0.4
23 0.4
24 0.4
25 0.4
26 0.4
3 -0.68
4 -0.68
5 -0.68
6 -0.68
7 0.28
8 0.28
9 0.28

> <PUBCHEM_EFFECTIVE_ROTOR_COUNT>
5

> <PUBCHEM_PHARMACOPHORE_FEATURES>
12
1 1 acceptor
1 1 donor
1 2 acceptor
1 2 donor
1 3 acceptor
1 3 donor
1 4 acceptor
1 4 donor
1 5 acceptor
1 5 donor
1 6 acceptor
1 6 donor

> <PUBCHEM_HEAVY_ATOM_COUNT>
12

> <PUBCHEM_ATOM_DEF_STEREO_COUNT>
4

> <PUBCHEM_ATOM_UDEF_STEREO_COUNT>
0

> <PUBCHEM_BOND_DEF_STEREO_COUNT>
0

> <PUBCHEM_BOND_UDEF_STEREO_COUNT>
0

> <PUBCHEM_ISOTOPIC_ATOM_COUNT>
0

> <PUBCHEM_COMPONENT_COUNT>
1

> <PUBCHEM_CACTVS_TAUTO_COUNT>
1

> <PUBCHEM_CONFORMER_ID>
0001D77C00000001

> <PUBCHEM_MMFF94_ENERGY>
28.3014

> <PUBCHEM_FEATURE_SELFOVERLAP>
60.938

> <PUBCHEM_SHAPE_FINGERPRINT>
10130415 120 18411134706133105040
10219947 1 17632574937884111358
11062470 55 16271918303199900281
124424 183 18411978044494364235
12897270 3 10881671412653932202
12932764 1 18057608861192328672
13571099 22 18410856521307032174
14325111 11 18334015029311845997
15310529 11 18189620608105587956
15775835 57 18410578422037459757
16945 1 18262806142138712069
18186145 218 17458621224686256902
18511873 20 18335135358619881458
18619055 16 18341614845251549524
20201158 50 18339080389076186870
20711983 171 18187089476683221149
207724 885 17821450144831152213
23402539 116 18337380557733516757
23552423 10 18040715908856400482
3248919 1 17846792796676221699
5084963 1 18336269062756419155

> <PUBCHEM_SHAPE_MULTIPOLES>
211.74
5.81
1.41
0.88
0.03
0
0
-0.04
-0.03
-0.03
0
0
0
-0.01

> <PUBCHEM_SHAPE_SELFOVERLAP>
397.943

> <PUBCHEM_SHAPE_VOLUME>
131.3

> <PUBCHEM_COORDINATE_TYPE>
2
5
10

$$$$
