443159
  -OEChem-02172602363D

 29 29  0     1  0  0  0  0  0999 V2000
   -0.0132    2.2444   -0.6541 O   0  0  0  0  0  0  0  0  0  0  0  0
    0.6733   -0.0569   -0.6375 C   0  0  2  0  0  0  0  0  0  0  0  0
   -0.1934   -1.3011   -0.8470 C   0  0  0  0  0  0  0  0  0  0  0  0
   -2.0204   -0.3767    0.6748 C   0  0  1  0  0  0  0  0  0  0  0  0
   -1.1386   -1.5830    0.3213 C   0  0  0  0  0  0  0  0  0  0  0  0
    1.8038   -0.2848    0.3612 C   0  0  0  0  0  0  0  0  0  0  0  0
   -1.1711    0.8696    0.9307 C   0  0  0  0  0  0  0  0  0  0  0  0
   -0.1818    1.1167   -0.1896 C   0  0  0  0  0  0  0  0  0  0  0  0
   -3.0827   -0.1119   -0.3967 C   0  0  0  0  0  0  0  0  0  0  0  0
    2.6549   -1.4837   -0.0534 C   0  0  0  0  0  0  0  0  0  0  0  0
    2.6691    0.9675    0.4903 C   0  0  0  0  0  0  0  0  0  0  0  0
    1.1008    0.2104   -1.6139 H   0  0  0  0  0  0  0  0  0  0  0  0
    0.3960   -2.1934   -1.0751 H   0  0  0  0  0  0  0  0  0  0  0  0
   -0.8039   -1.1394   -1.7454 H   0  0  0  0  0  0  0  0  0  0  0  0
   -2.5574   -0.6156    1.6020 H   0  0  0  0  0  0  0  0  0  0  0  0
   -1.7690   -2.4465    0.0772 H   0  0  0  0  0  0  0  0  0  0  0  0
   -0.5515   -1.8707    1.2020 H   0  0  0  0  0  0  0  0  0  0  0  0
    1.3989   -0.4963    1.3587 H   0  0  0  0  0  0  0  0  0  0  0  0
   -0.6021    0.7595    1.8605 H   0  0  0  0  0  0  0  0  0  0  0  0
   -1.8095    1.7534    1.0423 H   0  0  0  0  0  0  0  0  0  0  0  0
   -3.6835   -1.0096   -0.5767 H   0  0  0  0  0  0  0  0  0  0  0  0
   -3.7635    0.6823   -0.0715 H   0  0  0  0  0  0  0  0  0  0  0  0
   -2.6441    0.1996   -1.3496 H   0  0  0  0  0  0  0  0  0  0  0  0
    2.9574   -1.4205   -1.1041 H   0  0  0  0  0  0  0  0  0  0  0  0
    3.5682   -1.5351    0.5503 H   0  0  0  0  0  0  0  0  0  0  0  0
    2.1320   -2.4313    0.1061 H   0  0  0  0  0  0  0  0  0  0  0  0
    3.0592    1.2861   -0.4825 H   0  0  0  0  0  0  0  0  0  0  0  0
    3.5267    0.7783    1.1458 H   0  0  0  0  0  0  0  0  0  0  0  0
    2.1165    1.8031    0.9306 H   0  0  0  0  0  0  0  0  0  0  0  0
  1  8  2  0  0  0  0
  2  3  1  0  0  0  0
  2  6  1  0  0  0  0
  2  8  1  0  0  0  0
  2 12  1  0  0  0  0
  3  5  1  0  0  0  0
  3 13  1  0  0  0  0
  3 14  1  0  0  0  0
  4  5  1  0  0  0  0
  4  7  1  0  0  0  0
  4  9  1  0  0  0  0
  4 15  1  0  0  0  0
  5 16  1  0  0  0  0
  5 17  1  0  0  0  0
  6 10  1  0  0  0  0
  6 11  1  0  0  0  0
  6 18  1  0  0  0  0
  7  8  1  0  0  0  0
  7 19  1  0  0  0  0
  7 20  1  0  0  0  0
  9 21  1  0  0  0  0
  9 22  1  0  0  0  0
  9 23  1  0  0  0  0
 10 24  1  0  0  0  0
 10 25  1  0  0  0  0
 10 26  1  0  0  0  0
 11 27  1  0  0  0  0
 11 28  1  0  0  0  0
 11 29  1  0  0  0  0
M  END
> <PUBCHEM_COMPOUND_CID>
443159

> <PUBCHEM_CONFORMER_RMSD>
0.4

> <PUBCHEM_CONFORMER_DIVERSEORDER>
1
9
12
11
3
8
7
10
2
5
4
6

> <PUBCHEM_MMFF94_PARTIAL_CHARGES>
4
1 -0.57
2 0.06
7 0.06
8 0.45

> <PUBCHEM_EFFECTIVE_ROTOR_COUNT>
2

> <PUBCHEM_PHARMACOPHORE_FEATURES>
3
1 1 acceptor
3 6 10 11 hydrophobe
6 2 3 4 5 7 8 rings

> <PUBCHEM_HEAVY_ATOM_COUNT>
11

> <PUBCHEM_ATOM_DEF_STEREO_COUNT>
2

> <PUBCHEM_ATOM_UDEF_STEREO_COUNT>
0

> <PUBCHEM_BOND_DEF_STEREO_COUNT>
0

> <PUBCHEM_BOND_UDEF_STEREO_COUNT>
0

> <PUBCHEM_ISOTOPIC_ATOM_COUNT>
0

> <PUBCHEM_COMPONENT_COUNT>
1

> <PUBCHEM_CACTVS_TAUTO_COUNT>
3

> <PUBCHEM_CONFORMER_ID>
0006C31700000001

> <PUBCHEM_MMFF94_ENERGY>
17.3983

> <PUBCHEM_FEATURE_SELFOVERLAP>
15.223

> <PUBCHEM_SHAPE_FINGERPRINT>
10219947 1 18412827984352453779
12138202 97 17537999160793804525
12423570 1 12711313277356368638
12524768 44 18341619217364778606
13024252 1 16443346429561849986
14993402 34 18341049708927464917
15076042 46 18130230363219861066
16945 1 18338242690112137857
18185500 45 18124036985850621770
20653085 51 12103847886356217642
21501502 16 18269843008283158968
23552423 10 18048884296703291319
241688 4 18194131723973205907
2748010 2 18410579444134031799
29004967 10 18041561446161917704
369184 2 18411134731860671675
5084963 1 18129656379432315090
528862 383 17467912308315513240
54338 74 18334013865391591593

> <PUBCHEM_SHAPE_MULTIPOLES>
220.51
3.8
1.84
0.93
0.3
0.28
0.01
-0.56
0.41
0.37
-0.21
-0.15
0.05
0.09

> <PUBCHEM_SHAPE_SELFOVERLAP>
432.42

> <PUBCHEM_SHAPE_VOLUME>
132.8

> <PUBCHEM_COORDINATE_TYPE>
2
5
10

$$$$
