21368
  -OEChem-02172602593D

 27 27  0     0  0  0  0  0  0999 V2000
   -2.7128    0.8791   -0.1023 O   0  0  0  0  0  0  0  0  0  0  0  0
    2.6342    0.1131    0.8424 O   0  0  0  0  0  0  0  0  0  0  0  0
    2.6197   -0.2261   -1.4344 O   0  0  0  0  0  0  0  0  0  0  0  0
   -0.0676    1.7084   -0.4845 N   0  0  0  0  0  0  0  0  0  0  0  0
   -0.3740    0.3527   -0.2228 C   0  0  0  0  0  0  0  0  0  0  0  0
    0.6446   -0.5975   -0.1513 C   0  0  0  0  0  0  0  0  0  0  0  0
   -1.7015   -0.0326   -0.0363 C   0  0  0  0  0  0  0  0  0  0  0  0
    0.3357   -1.9331    0.1066 C   0  0  0  0  0  0  0  0  0  0  0  0
   -2.0105   -1.3681    0.2216 C   0  0  0  0  0  0  0  0  0  0  0  0
   -0.9918   -2.3184    0.2932 C   0  0  0  0  0  0  0  0  0  0  0  0
    2.0422   -0.2295   -0.3413 C   0  0  0  0  0  0  0  0  0  0  0  0
   -0.3929    2.7631    0.4218 C   0  0  0  0  0  0  0  0  0  0  0  0
   -4.0374    0.3922    0.1014 C   0  0  0  0  0  0  0  0  0  0  0  0
    4.0123    0.4967    0.7860 C   0  0  0  0  0  0  0  0  0  0  0  0
    1.1204   -2.6831    0.1648 H   0  0  0  0  0  0  0  0  0  0  0  0
   -3.0162   -1.7427    0.3770 H   0  0  0  0  0  0  0  0  0  0  0  0
    0.7691    1.8551   -1.0417 H   0  0  0  0  0  0  0  0  0  0  0  0
   -1.2312   -3.3587    0.4941 H   0  0  0  0  0  0  0  0  0  0  0  0
   -0.0650    2.5272    1.4396 H   0  0  0  0  0  0  0  0  0  0  0  0
   -1.4649    2.9777    0.4362 H   0  0  0  0  0  0  0  0  0  0  0  0
    0.1151    3.6832    0.1152 H   0  0  0  0  0  0  0  0  0  0  0  0
   -4.1690   -0.0123    1.1108 H   0  0  0  0  0  0  0  0  0  0  0  0
   -4.3307   -0.3205   -0.6770 H   0  0  0  0  0  0  0  0  0  0  0  0
   -4.7120    1.2506    0.0145 H   0  0  0  0  0  0  0  0  0  0  0  0
    4.6188   -0.3307    0.4062 H   0  0  0  0  0  0  0  0  0  0  0  0
    4.3404    0.7379    1.8004 H   0  0  0  0  0  0  0  0  0  0  0  0
    4.1308    1.3838    0.1567 H   0  0  0  0  0  0  0  0  0  0  0  0
  1  7  1  0  0  0  0
  1 13  1  0  0  0  0
  2 11  1  0  0  0  0
  2 14  1  0  0  0  0
  3 11  2  0  0  0  0
  4  5  1  0  0  0  0
  4 12  1  0  0  0  0
  4 17  1  0  0  0  0
  5  6  2  0  0  0  0
  5  7  1  0  0  0  0
  6  8  1  0  0  0  0
  6 11  1  0  0  0  0
  7  9  2  0  0  0  0
  8 10  2  0  0  0  0
  8 15  1  0  0  0  0
  9 10  1  0  0  0  0
  9 16  1  0  0  0  0
 10 18  1  0  0  0  0
 12 19  1  0  0  0  0
 12 20  1  0  0  0  0
 12 21  1  0  0  0  0
 13 22  1  0  0  0  0
 13 23  1  0  0  0  0
 13 24  1  0  0  0  0
 14 25  1  0  0  0  0
 14 26  1  0  0  0  0
 14 27  1  0  0  0  0
M  END
> <PUBCHEM_COMPOUND_CID>
21368

> <PUBCHEM_CONFORMER_RMSD>
0.6

> <PUBCHEM_CONFORMER_DIVERSEORDER>
12
1
9
15
10
6
16
8
11
13
7
5
14
2
3
4

> <PUBCHEM_MMFF94_PARTIAL_CHARGES>
18
1 -0.36
10 -0.15
11 0.63
12 0.37
13 0.28
14 0.28
15 0.15
16 0.15
17 0.4
18 0.15
2 -0.43
3 -0.57
4 -0.87
5 0.1
6 0.09
7 0.08
8 -0.15
9 -0.15

> <PUBCHEM_EFFECTIVE_ROTOR_COUNT>
4

> <PUBCHEM_PHARMACOPHORE_FEATURES>
5
1 1 acceptor
1 3 acceptor
1 4 cation
1 4 donor
6 5 6 7 8 9 10 rings

> <PUBCHEM_HEAVY_ATOM_COUNT>
14

> <PUBCHEM_ATOM_DEF_STEREO_COUNT>
0

> <PUBCHEM_ATOM_UDEF_STEREO_COUNT>
0

> <PUBCHEM_BOND_DEF_STEREO_COUNT>
0

> <PUBCHEM_BOND_UDEF_STEREO_COUNT>
0

> <PUBCHEM_ISOTOPIC_ATOM_COUNT>
0

> <PUBCHEM_COMPONENT_COUNT>
1

> <PUBCHEM_CACTVS_TAUTO_COUNT>
2

> <PUBCHEM_CONFORMER_ID>
000053780000000C

> <PUBCHEM_MMFF94_ENERGY>
67.7202

> <PUBCHEM_FEATURE_SELFOVERLAP>
25.371

> <PUBCHEM_SHAPE_FINGERPRINT>
11132069 177 18411136943721187299
12119455 92 17489297590754080366
12382932 28 18410011052430750746
12423570 1 11957247737440136270
13140716 1 18265057019093708705
13214271 11 18200586029396240340
13380535 76 18408321081953735675
14614273 12 18116987789171975845
15219456 202 18059860584308824774
15775835 57 18335133189867112594
16945 1 18261397736726784511
17846911 113 18410567375249634192
193761 8 17833834146252941717
20510252 161 18341891831808367472
20588541 1 18413670201373983586
20645476 183 17459488777920819742
21501502 16 18049162468976732437
22802520 49 18057625195190741798
2334 1 18049165767596076725
23402539 116 18271511061684981022
23419403 2 17398911322290297230
23557571 272 18198915884340129086
23559900 14 18341060666375545854
2748010 2 18048599510681205455
5255222 1 17183070145885122884
528886 8 18410009927370936563
53812653 166 18413103970260727147
6333449 129 18341607157017496551
7364860 26 18125437506025016542
77492 1 17386005122013124526
81228 2 18268445563169179128

> <PUBCHEM_SHAPE_MULTIPOLES>
265.52
5.27
2.32
0.85
1.18
0.5
-0.1
0.92
0.72
-0.85
0.31
0.57
0.02
0.26

> <PUBCHEM_SHAPE_SELFOVERLAP>
546.823

> <PUBCHEM_SHAPE_VOLUME>
153.9

> <PUBCHEM_COORDINATE_TYPE>
2
5
10

$$$$
