441454
  -OEChem-02172602483D

 22 21  0     1  0  0  0  0  0999 V2000
   -0.7692   -0.5616    0.0785 S   0  0  2  0  0  0  0  0  0  0  0  0
    2.1887   -1.7025   -0.0106 O   0  0  0  0  0  0  0  0  0  0  0  0
   -1.0541   -0.9763    1.4859 O   0  0  0  0  0  0  0  0  0  0  0  0
    3.0032   -0.0905   -1.3920 O   0  0  0  0  0  0  0  0  0  0  0  0
    2.5693    1.7375    0.6329 N   0  0  0  0  0  0  0  0  0  0  0  0
    1.7287    0.5389    0.5929 C   0  0  1  0  0  0  0  0  0  0  0  0
    0.3149    0.9035    0.1478 C   0  0  0  0  0  0  0  0  0  0  0  0
    2.3892   -0.4129   -0.3844 C   0  0  0  0  0  0  0  0  0  0  0  0
   -2.2265    0.2969   -0.4855 C   0  0  0  0  0  0  0  0  0  0  0  0
   -3.4263   -0.1828   -0.1311 C   0  0  0  0  0  0  0  0  0  0  0  0
   -4.7180    0.4498   -0.5344 C   0  0  0  0  0  0  0  0  0  0  0  0
    1.7276    0.0885    1.5920 H   0  0  0  0  0  0  0  0  0  0  0  0
   -0.1334    1.6271    0.8380 H   0  0  0  0  0  0  0  0  0  0  0  0
    0.3293    1.3425   -0.8571 H   0  0  0  0  0  0  0  0  0  0  0  0
    2.6160    2.1657   -0.2910 H   0  0  0  0  0  0  0  0  0  0  0  0
    3.5233    1.4860    0.8884 H   0  0  0  0  0  0  0  0  0  0  0  0
   -2.1628    1.1840   -1.1077 H   0  0  0  0  0  0  0  0  0  0  0  0
   -3.5114   -1.0764    0.4820 H   0  0  0  0  0  0  0  0  0  0  0  0
   -5.3178   -0.2624   -1.1092 H   0  0  0  0  0  0  0  0  0  0  0  0
   -5.2853    0.7378    0.3559 H   0  0  0  0  0  0  0  0  0  0  0  0
   -4.5695    1.3441   -1.1481 H   0  0  0  0  0  0  0  0  0  0  0  0
    2.5982   -2.3337   -0.6401 H   0  0  0  0  0  0  0  0  0  0  0  0
  1  3  2  0  0  0  0
  1  7  1  0  0  0  0
  1  9  1  0  0  0  0
  2  8  1  0  0  0  0
  2 22  1  0  0  0  0
  4  8  2  0  0  0  0
  5  6  1  0  0  0  0
  5 15  1  0  0  0  0
  5 16  1  0  0  0  0
  6  7  1  0  0  0  0
  6  8  1  0  0  0  0
  6 12  1  0  0  0  0
  7 13  1  0  0  0  0
  7 14  1  0  0  0  0
  9 10  2  3  0  0  0
  9 17  1  0  0  0  0
 10 11  1  0  0  0  0
 10 18  1  0  0  0  0
 11 19  1  0  0  0  0
 11 20  1  0  0  0  0
 11 21  1  0  0  0  0
M  END
> <PUBCHEM_COMPOUND_CID>
441454

> <PUBCHEM_CONFORMER_RMSD>
0.6

> <PUBCHEM_CONFORMER_DIVERSEORDER>
1
43
20
40
25
42
16
4
39
29
24
34
7
35
26
36
41
8
22
9
28
10
32
38
3
19
37
23
18
15
27
30
33
31
11
6
21
13
14
2
17
5
12

> <PUBCHEM_MMFF94_PARTIAL_CHARGES>
16
1 0.25
10 -0.29
11 0.14
15 0.36
16 0.36
17 0.15
18 0.15
2 -0.65
22 0.5
3 -0.5
4 -0.57
5 -0.99
6 0.33
7 0.19
8 0.66
9 -0.09

> <PUBCHEM_EFFECTIVE_ROTOR_COUNT>
4

> <PUBCHEM_PHARMACOPHORE_FEATURES>
7
1 11 hydrophobe
1 2 acceptor
1 3 acceptor
1 4 acceptor
1 5 cation
1 5 donor
3 2 4 8 anion

> <PUBCHEM_HEAVY_ATOM_COUNT>
11

> <PUBCHEM_ATOM_DEF_STEREO_COUNT>
1

> <PUBCHEM_ATOM_UDEF_STEREO_COUNT>
1

> <PUBCHEM_BOND_DEF_STEREO_COUNT>
0

> <PUBCHEM_BOND_UDEF_STEREO_COUNT>
1

> <PUBCHEM_ISOTOPIC_ATOM_COUNT>
0

> <PUBCHEM_COMPONENT_COUNT>
1

> <PUBCHEM_CACTVS_TAUTO_COUNT>
1

> <PUBCHEM_CONFORMER_ID>
0006BC6E00000001

> <PUBCHEM_MMFF94_ENERGY>
8.997

> <PUBCHEM_FEATURE_SELFOVERLAP>
35.578

> <PUBCHEM_SHAPE_FINGERPRINT>
11062470 55 15841828962866018409
12932764 1 18411696586871641751
14325111 11 18341607148928416597
177051 138 14836409107588411765
18186145 218 18342739611492650425
20201158 50 18410293605586761762
20279233 1 18335700576368639763
20645477 70 17988923366548967471
20653085 51 18342742918643920313
21293036 1 17748831812795205797
23402655 69 18272084989912596413
23552333 60 17418089936257529570
3248919 1 17167857599556320003
522135 26 18413106139366826597

> <PUBCHEM_SHAPE_MULTIPOLES>
207.64
6.91
1.29
1.02
6.48
0.05
-0.05
0.75
1.81
-1.04
-0.23
-0.28
-0.12
0.54

> <PUBCHEM_SHAPE_SELFOVERLAP>
378.316

> <PUBCHEM_SHAPE_VOLUME>
132.1

> <PUBCHEM_COORDINATE_TYPE>
2
5
10

$$$$
