72427
  -OEChem-02172602363D

 62 67  0     1  0  0  0  0  0999 V2000
   -2.4243    0.4208    0.1025 O   0  0  0  0  0  0  0  0  0  0  0  0
   -6.0017    1.3439    0.1308 O   0  0  0  0  0  0  0  0  0  0  0  0
    1.4978    2.8923   -0.0839 O   0  0  0  0  0  0  0  0  0  0  0  0
   -2.6884    5.2594   -0.0751 O   0  0  0  0  0  0  0  0  0  0  0  0
   -0.4984   -1.2520    0.1175 O   0  0  0  0  0  0  0  0  0  0  0  0
   -5.6319   -4.8985   -0.4637 O   0  0  0  0  0  0  0  0  0  0  0  0
    1.8750   -1.3349    2.4756 O   0  0  0  0  0  0  0  0  0  0  0  0
    1.7548   -1.5288   -2.3183 O   0  0  0  0  0  0  0  0  0  0  0  0
    7.2321    0.3152   -0.1192 O   0  0  0  0  0  0  0  0  0  0  0  0
    5.2500   -3.6974    0.0847 O   0  0  0  0  0  0  0  0  0  0  0  0
   -4.6398    1.4186   -0.2775 C   0  0  2  0  0  0  0  0  0  0  0  0
   -3.8077    0.3795    0.4846 C   0  0  1  0  0  0  0  0  0  0  0  0
   -4.1105    2.8152    0.0358 C   0  0  0  0  0  0  0  0  0  0  0  0
   -2.6099    2.8561   -0.0006 C   0  0  0  0  0  0  0  0  0  0  0  0
   -1.8578    1.6671    0.0499 C   0  0  0  0  0  0  0  0  0  0  0  0
   -0.4518    1.7524    0.0078 C   0  0  0  0  0  0  0  0  0  0  0  0
   -4.2965   -1.0345    0.2304 C   0  0  0  0  0  0  0  0  0  0  0  0
    0.1405    3.0087   -0.0556 C   0  0  0  0  0  0  0  0  0  0  0  0
   -1.9621    4.1013   -0.0536 C   0  0  0  0  0  0  0  0  0  0  0  0
    0.6245    0.8230    0.0180 C   0  0  0  0  0  0  0  0  0  0  0  0
   -0.5686    4.2056   -0.0839 C   0  0  0  0  0  0  0  0  0  0  0  0
    1.7810    1.5649   -0.0397 C   0  0  0  0  0  0  0  0  0  0  0  0
   -4.7177   -1.8248    1.2970 C   0  0  0  0  0  0  0  0  0  0  0  0
   -4.3219   -1.5364   -1.0688 C   0  0  0  0  0  0  0  0  0  0  0  0
    0.5668   -0.6100    0.0770 C   0  0  0  0  0  0  0  0  0  0  0  0
    3.1815    1.2434   -0.0600 C   0  0  0  0  0  0  0  0  0  0  0  0
   -5.1669   -3.1246    1.0635 C   0  0  0  0  0  0  0  0  0  0  0  0
   -4.7711   -2.8361   -1.3025 C   0  0  0  0  0  0  0  0  0  0  0  0
    1.8150   -1.4323    0.0785 C   0  0  0  0  0  0  0  0  0  0  0  0
   -5.1937   -3.6303   -0.2363 C   0  0  0  0  0  0  0  0  0  0  0  0
    3.8375    1.0372   -1.2765 C   0  0  0  0  0  0  0  0  0  0  0  0
    3.8953    1.1356    1.1367 C   0  0  0  0  0  0  0  0  0  0  0  0
    2.3972   -1.7474    1.2860 C   0  0  0  0  0  0  0  0  0  0  0  0
    2.3369   -1.8451   -1.1273 C   0  0  0  0  0  0  0  0  0  0  0  0
    5.1969    0.7253   -1.2963 C   0  0  0  0  0  0  0  0  0  0  0  0
    5.2547    0.8239    1.1170 C   0  0  0  0  0  0  0  0  0  0  0  0
    5.9057    0.6187   -0.0996 C   0  0  0  0  0  0  0  0  0  0  0  0
    3.5619   -2.5150    1.2880 C   0  0  0  0  0  0  0  0  0  0  0  0
    3.5017   -2.6127   -1.1251 C   0  0  0  0  0  0  0  0  0  0  0  0
    4.1141   -2.9477    0.0825 C   0  0  0  0  0  0  0  0  0  0  0  0
   -4.5875    1.2498   -1.3602 H   0  0  0  0  0  0  0  0  0  0  0  0
   -3.8669    0.5793    1.5642 H   0  0  0  0  0  0  0  0  0  0  0  0
   -4.4570    3.1352    1.0272 H   0  0  0  0  0  0  0  0  0  0  0  0
   -4.5449    3.5052   -0.6983 H   0  0  0  0  0  0  0  0  0  0  0  0
   -0.0651    5.1644   -0.1286 H   0  0  0  0  0  0  0  0  0  0  0  0
   -6.4921    2.0254   -0.3598 H   0  0  0  0  0  0  0  0  0  0  0  0
   -4.7027   -1.4448    2.3148 H   0  0  0  0  0  0  0  0  0  0  0  0
   -3.9859   -0.9377   -1.9107 H   0  0  0  0  0  0  0  0  0  0  0  0
   -3.6014    5.1003    0.2102 H   0  0  0  0  0  0  0  0  0  0  0  0
   -5.4932   -3.7331    1.9026 H   0  0  0  0  0  0  0  0  0  0  0  0
   -4.7871   -3.2254   -2.3168 H   0  0  0  0  0  0  0  0  0  0  0  0
    3.3013    1.1209   -2.2191 H   0  0  0  0  0  0  0  0  0  0  0  0
    3.4043    1.2969    2.0938 H   0  0  0  0  0  0  0  0  0  0  0  0
    5.6982    0.5664   -2.2471 H   0  0  0  0  0  0  0  0  0  0  0  0
    5.7953    0.7438    2.0563 H   0  0  0  0  0  0  0  0  0  0  0  0
    4.0462   -2.7795    2.2248 H   0  0  0  0  0  0  0  0  0  0  0  0
    3.9340   -2.9498   -2.0642 H   0  0  0  0  0  0  0  0  0  0  0  0
   -5.8840   -5.3017    0.3848 H   0  0  0  0  0  0  0  0  0  0  0  0
    2.4402   -1.6551    3.1994 H   0  0  0  0  0  0  0  0  0  0  0  0
    2.2833   -1.9073   -3.0417 H   0  0  0  0  0  0  0  0  0  0  0  0
    7.5607    0.2803    0.7956 H   0  0  0  0  0  0  0  0  0  0  0  0
    5.4923   -3.9058   -0.8339 H   0  0  0  0  0  0  0  0  0  0  0  0
  1 12  1  0  0  0  0
  1 15  1  0  0  0  0
  2 11  1  0  0  0  0
  2 46  1  0  0  0  0
  3 18  1  0  0  0  0
  3 22  1  0  0  0  0
  4 19  1  0  0  0  0
  4 49  1  0  0  0  0
  5 25  2  0  0  0  0
  6 30  1  0  0  0  0
  6 58  1  0  0  0  0
  7 33  1  0  0  0  0
  7 59  1  0  0  0  0
  8 34  1  0  0  0  0
  8 60  1  0  0  0  0
  9 37  1  0  0  0  0
  9 61  1  0  0  0  0
 10 40  1  0  0  0  0
 10 62  1  0  0  0  0
 11 12  1  0  0  0  0
 11 13  1  0  0  0  0
 11 41  1  0  0  0  0
 12 17  1  0  0  0  0
 12 42  1  0  0  0  0
 13 14  1  0  0  0  0
 13 43  1  0  0  0  0
 13 44  1  0  0  0  0
 14 15  2  0  0  0  0
 14 19  1  0  0  0  0
 15 16  1  0  0  0  0
 16 18  2  0  0  0  0
 16 20  1  0  0  0  0
 17 23  2  0  0  0  0
 17 24  1  0  0  0  0
 18 21  1  0  0  0  0
 19 21  2  0  0  0  0
 20 22  2  0  0  0  0
 20 25  1  0  0  0  0
 21 45  1  0  0  0  0
 22 26  1  0  0  0  0
 23 27  1  0  0  0  0
 23 47  1  0  0  0  0
 24 28  2  0  0  0  0
 24 48  1  0  0  0  0
 25 29  1  0  0  0  0
 26 31  2  0  0  0  0
 26 32  1  0  0  0  0
 27 30  2  0  0  0  0
 27 50  1  0  0  0  0
 28 30  1  0  0  0  0
 28 51  1  0  0  0  0
 29 33  2  0  0  0  0
 29 34  1  0  0  0  0
 31 35  1  0  0  0  0
 31 52  1  0  0  0  0
 32 36  2  0  0  0  0
 32 53  1  0  0  0  0
 33 38  1  0  0  0  0
 34 39  2  0  0  0  0
 35 37  2  0  0  0  0
 35 54  1  0  0  0  0
 36 37  1  0  0  0  0
 36 55  1  0  0  0  0
 38 40  2  0  0  0  0
 38 56  1  0  0  0  0
 39 40  1  0  0  0  0
 39 57  1  0  0  0  0
M  END
> <PUBCHEM_COMPOUND_CID>
72427

> <PUBCHEM_CONFORMER_RMSD>
0.8

> <PUBCHEM_CONFORMER_DIVERSEORDER>
1
5
9
11
3
10
4
6
7
8
2

> <PUBCHEM_MMFF94_PARTIAL_CHARGES>
57
1 -0.36
10 -0.53
11 0.28
12 0.42
13 0.14
14 -0.14
15 0.08
17 -0.14
18 0.14
19 0.08
2 -0.68
20 -0.09
21 -0.15
22 0.09
23 -0.15
24 -0.15
25 0.57
26 0.05
27 -0.15
28 -0.15
29 0.09
3 -0.28
30 0.08
31 -0.15
32 -0.15
33 0.08
34 0.08
35 -0.15
36 -0.15
37 0.08
38 -0.15
39 -0.15
4 -0.53
40 0.08
45 0.15
46 0.4
47 0.15
48 0.15
49 0.45
5 -0.57
50 0.15
51 0.15
52 0.15
53 0.15
54 0.15
55 0.15
56 0.15
57 0.15
58 0.45
59 0.45
6 -0.53
60 0.45
61 0.45
62 0.45
7 -0.53
8 -0.53
9 -0.53

> <PUBCHEM_EFFECTIVE_ROTOR_COUNT>
4.8

> <PUBCHEM_PHARMACOPHORE_FEATURES>
17
1 1 acceptor
1 10 donor
1 2 acceptor
1 2 donor
1 3 acceptor
1 4 donor
1 5 acceptor
1 6 donor
1 7 donor
1 8 donor
1 9 donor
5 3 16 18 20 22 rings
6 1 11 12 13 14 15 rings
6 14 15 16 18 19 21 rings
6 17 23 24 27 28 30 rings
6 26 31 32 35 36 37 rings
6 29 33 34 38 39 40 rings

> <PUBCHEM_HEAVY_ATOM_COUNT>
40

> <PUBCHEM_ATOM_DEF_STEREO_COUNT>
2

> <PUBCHEM_ATOM_UDEF_STEREO_COUNT>
0

> <PUBCHEM_BOND_DEF_STEREO_COUNT>
0

> <PUBCHEM_BOND_UDEF_STEREO_COUNT>
0

> <PUBCHEM_ISOTOPIC_ATOM_COUNT>
0

> <PUBCHEM_COMPONENT_COUNT>
1

> <PUBCHEM_CACTVS_TAUTO_COUNT>
420

> <PUBCHEM_CONFORMER_ID>
00011AEB00000001

> <PUBCHEM_MMFF94_ENERGY>
121.9168

> <PUBCHEM_FEATURE_SELFOVERLAP>
86.425

> <PUBCHEM_SHAPE_FINGERPRINT>
10050765 1 18338235943488720498
10462674 296 17840295950278205295
11513181 2 18339085882746008406
11828042 200 18047206416653991782
11963148 33 18408881854390678826
12422481 6 17917983945903949070
13140716 1 18267304227054682377
13782708 43 17917994992807409734
15001296 14 18408885122622855684
15320467 1 18050567640806703367
15351339 4 18041543811796957931
15927050 60 17115230823923168532
16090146 7 17552643547685508313
16112460 7 18270412577171704249
18608769 82 18411982455985245320
19319366 153 17461173045683943187
20028762 73 18127133202073589686
20691752 17 17024887957121820920
23559900 14 17550382939099068020
25222932 49 18339643463700062142
3380486 145 18336283288089563289
4144715 1 18196660588296957950
4461854 278 17842851180725523647
463206 1 18119534490546973739
469060 322 18338812185622787824
484989 97 18271819978184140462
5309563 4 18267021855062614509

> <PUBCHEM_SHAPE_MULTIPOLES>
764.49
14.45
6.05
1.3
0.07
1.31
-0.05
-9.67
0.22
6.83
0.32
-0.78
-0.91
-0.39

> <PUBCHEM_SHAPE_SELFOVERLAP>
1742.595

> <PUBCHEM_SHAPE_VOLUME>
396.8

> <PUBCHEM_COORDINATE_TYPE>
2
5
10

$$$$
