440263
  -OEChem-02172602493D

 45 45  0     1  0  0  0  0  0999 V2000
   -1.2478   -0.8407    0.8183 O   0  0  0  0  0  0  0  0  0  0  0  0
   -0.7867    1.0303   -0.5230 O   0  0  0  0  0  0  0  0  0  0  0  0
   -3.4451    1.6646   -0.5578 O   0  0  0  0  0  0  0  0  0  0  0  0
   -4.4093   -1.2671   -0.7696 O   0  0  0  0  0  0  0  0  0  0  0  0
   -2.3712    1.1610    2.7266 O   0  0  0  0  0  0  0  0  0  0  0  0
   -0.6159   -3.4706    0.0641 O   0  0  0  0  0  0  0  0  0  0  0  0
    1.0320    0.4173   -2.4834 O   0  0  0  0  0  0  0  0  0  0  0  0
    3.3722   -1.1171   -1.6564 O   0  0  0  0  0  0  0  0  0  0  0  0
    4.8145    0.3387    0.3849 O   0  0  0  0  0  0  0  0  0  0  0  0
    0.3491    3.4303   -0.7062 O   0  0  0  0  0  0  0  0  0  0  0  0
    3.4056   -1.1309    2.5427 O   0  0  0  0  0  0  0  0  0  0  0  0
   -1.5734    0.5382    0.5630 C   0  0  1  0  0  0  0  0  0  0  0  0
   -3.0434    0.5129    0.1568 C   0  0  2  0  0  0  0  0  0  0  0  0
   -3.0966   -0.7441   -0.6851 C   0  0  1  0  0  0  0  0  0  0  0  0
   -2.1901   -1.6743    0.1129 C   0  0  1  0  0  0  0  0  0  0  0  0
   -1.3156    1.3760    1.8057 C   0  0  0  0  0  0  0  0  0  0  0  0
    0.5962    1.0713   -0.1875 C   0  0  1  0  0  0  0  0  0  0  0  0
   -1.4358   -2.6606   -0.7619 C   0  0  0  0  0  0  0  0  0  0  0  0
    1.3364    0.1024   -1.1192 C   0  0  2  0  0  0  0  0  0  0  0  0
    2.8690    0.0482   -0.9945 C   0  0  1  0  0  0  0  0  0  0  0  0
    3.4147    0.0280    0.4411 C   0  0  1  0  0  0  0  0  0  0  0  0
    1.0559    2.5098   -0.3073 C   0  0  0  0  0  0  0  0  0  0  0  0
    3.2854   -1.3233    1.1358 C   0  0  0  0  0  0  0  0  0  0  0  0
   -3.7252    0.3939    1.0066 H   0  0  0  0  0  0  0  0  0  0  0  0
   -2.7334   -0.5610   -1.7027 H   0  0  0  0  0  0  0  0  0  0  0  0
   -2.7481   -2.2271    0.8789 H   0  0  0  0  0  0  0  0  0  0  0  0
   -0.3995    1.1027    2.3352 H   0  0  0  0  0  0  0  0  0  0  0  0
   -1.2858    2.4446    1.5687 H   0  0  0  0  0  0  0  0  0  0  0  0
    0.8095    0.7528    0.8333 H   0  0  0  0  0  0  0  0  0  0  0  0
   -0.7951   -2.1493   -1.4848 H   0  0  0  0  0  0  0  0  0  0  0  0
   -2.1326   -3.3079   -1.3041 H   0  0  0  0  0  0  0  0  0  0  0  0
    0.9459   -0.9073   -0.9625 H   0  0  0  0  0  0  0  0  0  0  0  0
    3.2978    0.9025   -1.5342 H   0  0  0  0  0  0  0  0  0  0  0  0
   -4.3447    1.5031   -0.8901 H   0  0  0  0  0  0  0  0  0  0  0  0
   -4.7400   -1.4185    0.1319 H   0  0  0  0  0  0  0  0  0  0  0  0
    2.9730    0.8210    1.0493 H   0  0  0  0  0  0  0  0  0  0  0  0
    2.0979    2.7069   -0.0058 H   0  0  0  0  0  0  0  0  0  0  0  0
   -2.1957    1.7208    3.5021 H   0  0  0  0  0  0  0  0  0  0  0  0
   -0.1451   -4.0901   -0.5191 H   0  0  0  0  0  0  0  0  0  0  0  0
    0.0633    0.4205   -2.5707 H   0  0  0  0  0  0  0  0  0  0  0  0
    4.0681   -2.0219    0.8229 H   0  0  0  0  0  0  0  0  0  0  0  0
    2.3020   -1.7677    0.9555 H   0  0  0  0  0  0  0  0  0  0  0  0
    4.3432   -1.0829   -1.6106 H   0  0  0  0  0  0  0  0  0  0  0  0
    5.1503    0.3361    1.2977 H   0  0  0  0  0  0  0  0  0  0  0  0
    3.3130   -2.0051    2.9585 H   0  0  0  0  0  0  0  0  0  0  0  0
  1 12  1  0  0  0  0
  1 15  1  0  0  0  0
  2 12  1  0  0  0  0
  2 17  1  0  0  0  0
  3 13  1  0  0  0  0
  3 34  1  0  0  0  0
  4 14  1  0  0  0  0
  4 35  1  0  0  0  0
  5 16  1  0  0  0  0
  5 38  1  0  0  0  0
  6 18  1  0  0  0  0
  6 39  1  0  0  0  0
  7 19  1  0  0  0  0
  7 40  1  0  0  0  0
  8 20  1  0  0  0  0
  8 43  1  0  0  0  0
  9 21  1  0  0  0  0
  9 44  1  0  0  0  0
 10 22  2  0  0  0  0
 11 23  1  0  0  0  0
 11 45  1  0  0  0  0
 12 13  1  0  0  0  0
 12 16  1  0  0  0  0
 13 14  1  0  0  0  0
 13 24  1  0  0  0  0
 14 15  1  0  0  0  0
 14 25  1  0  0  0  0
 15 18  1  0  0  0  0
 15 26  1  0  0  0  0
 16 27  1  0  0  0  0
 16 28  1  0  0  0  0
 17 19  1  0  0  0  0
 17 22  1  0  0  0  0
 17 29  1  0  0  0  0
 18 30  1  0  0  0  0
 18 31  1  0  0  0  0
 19 20  1  0  0  0  0
 19 32  1  0  0  0  0
 20 21  1  0  0  0  0
 20 33  1  0  0  0  0
 21 23  1  0  0  0  0
 21 36  1  0  0  0  0
 22 37  1  0  0  0  0
 23 41  1  0  0  0  0
 23 42  1  0  0  0  0
M  END
> <PUBCHEM_COMPOUND_CID>
440263

> <PUBCHEM_CONFORMER_RMSD>
1

> <PUBCHEM_CONFORMER_DIVERSEORDER>
1
165
74
216
106
153
175
215
190
45
124
193
118
191
148
214
172
186
105
203
127
71
184
12
131
112
225
158
222
201
204
25
117
207
14
188
40
185
33
95
169
218
189
212
162
228
44
20
121
43
178
29
8
99
154
73
83
139
167
156
200
129
150
227
77
195
205
2
35
210
80
230
76
128
54
68
164
229
19
221
50
52
107
224
163
64
180
21
161
120
174
114
130
28
155
223
56
84
168
79
39
18
159
181
208
198
5
157
85
65
46
92
152
134
75
82
145
67
100
141
42
103
206
62
61
66
171
182
110
220
108
87
88
34
101
59
7
219
3
78
151
187
138
4
183
57
51
176
194
113
147
177
72
27
22
37
133
111
196
36
170
136
123
49
209
116
48
137
104
97
38
199
32
166
197
179
23
119
90
16
125
140
70
6
144
26
143
17
41
69
58
60
31
226
63
13
91
55
146
96
115
211
173
217
98
10
24
109
89
202
135
93
47
142
160
149
102
15
9
86
94
192
53
30
81
126
11
132
213
122

> <PUBCHEM_MMFF94_PARTIAL_CHARGES>
32
1 -0.56
10 -0.57
11 -0.68
12 0.56
13 0.28
14 0.28
15 0.28
16 0.28
17 0.34
18 0.28
19 0.28
2 -0.56
20 0.28
21 0.28
22 0.45
23 0.28
3 -0.68
34 0.4
35 0.4
37 0.06
38 0.4
39 0.4
4 -0.68
40 0.4
43 0.4
44 0.4
45 0.4
5 -0.68
6 -0.68
7 -0.68
8 -0.68
9 -0.68

> <PUBCHEM_EFFECTIVE_ROTOR_COUNT>
10

> <PUBCHEM_PHARMACOPHORE_FEATURES>
20
1 1 acceptor
1 10 acceptor
1 11 acceptor
1 11 donor
1 2 acceptor
1 3 acceptor
1 3 donor
1 4 acceptor
1 4 donor
1 5 acceptor
1 5 donor
1 6 acceptor
1 6 donor
1 7 acceptor
1 7 donor
1 8 acceptor
1 8 donor
1 9 acceptor
1 9 donor
5 1 12 13 14 15 rings

> <PUBCHEM_HEAVY_ATOM_COUNT>
23

> <PUBCHEM_ATOM_DEF_STEREO_COUNT>
4

> <PUBCHEM_ATOM_UDEF_STEREO_COUNT>
4

> <PUBCHEM_BOND_DEF_STEREO_COUNT>
0

> <PUBCHEM_BOND_UDEF_STEREO_COUNT>
0

> <PUBCHEM_ISOTOPIC_ATOM_COUNT>
0

> <PUBCHEM_COMPONENT_COUNT>
1

> <PUBCHEM_CACTVS_TAUTO_COUNT>
2

> <PUBCHEM_CONFORMER_ID>
0006B7C700000001

> <PUBCHEM_MMFF94_ENERGY>
68.8469

> <PUBCHEM_FEATURE_SELFOVERLAP>
101.596

> <PUBCHEM_SHAPE_FINGERPRINT>
10062212 137 18113891616363008603
10366900 7 16988561325236792546
11578080 2 17678147534709125260
12422481 6 17322112226313863849
12553582 1 18262535727056320508
12592029 89 18189061910839852419
12670545 2 18259978292753514671
12670545 47 16916777522494861362
12788726 201 17772775955144702169
13004483 165 18116972469318646736
13140716 1 17982742071017963043
14178342 30 17987255351564382945
14289901 80 16988842778633074008
16752209 62 18411983563701809303
16945 1 18337678623984164887
17349148 13 18131064974038971413
17834072 14 18272646857222886453
18981168 100 11382741929574098201
192875 21 18272369823426820463
20600515 1 18342725330304560688
20626108 58 18268413784737369199
21421861 104 17758959616093925779
23184049 29 18123754411299083943
23419403 2 16904336629624870407
23557571 272 17346322626269461047
23559900 14 17846221016755343230
34934 24 18260828202826095956
5161694 15 14923944544090599202
539174 4 17695074296737398690
74978 22 18265061403859613933
81228 2 17487647232422359009

> <PUBCHEM_SHAPE_MULTIPOLES>
408.77
6.91
2.91
1.91
2.92
0.26
-0.79
1.8
-0.69
-1.02
0.25
0.79
-0.19
-1.1

> <PUBCHEM_SHAPE_SELFOVERLAP>
822.89

> <PUBCHEM_SHAPE_VOLUME>
238.5

> <PUBCHEM_COORDINATE_TYPE>
2
5
10

$$$$
