442363
  -OEChem-02172602573D

 43 45  0     1  0  0  0  0  0999 V2000
   -0.3172    1.0362    0.3701 O   0  0  0  0  0  0  0  0  0  0  0  0
   -3.7174   -0.4823    0.2836 O   0  0  0  0  0  0  0  0  0  0  0  0
    0.2804   -0.0006   -0.4121 C   0  0  2  0  0  0  0  0  0  0  0  0
   -0.0551   -1.3502    0.2875 C   0  0  2  0  0  0  0  0  0  0  0  0
    1.8124   -0.0148   -0.5633 C   0  0  2  0  0  0  0  0  0  0  0  0
   -1.7273    0.9613    0.0253 C   0  0  1  0  0  0  0  0  0  0  0  0
   -0.3882    0.1934   -1.7985 C   0  0  0  0  0  0  0  0  0  0  0  0
    0.8671   -2.3116   -0.4635 C   0  0  0  0  0  0  0  0  0  0  0  0
   -1.5642   -1.6090    0.1739 C   0  0  0  0  0  0  0  0  0  0  0  0
    2.1830   -1.5194   -0.5962 C   0  0  0  0  0  0  0  0  0  0  0  0
   -1.6892    0.9245   -1.5004 C   0  0  0  0  0  0  0  0  0  0  0  0
   -2.3400   -0.3466    0.6132 C   0  0  2  0  0  0  0  0  0  0  0  0
    2.5744    0.7834    0.4892 C   0  0  0  0  0  0  0  0  0  0  0  0
    0.3090   -1.3915    1.7979 C   0  0  0  0  0  0  0  0  0  0  0  0
   -2.4387    2.2012    0.5529 C   0  0  0  0  0  0  0  0  0  0  0  0
    4.0809    0.6808    0.2570 C   0  0  0  0  0  0  0  0  0  0  0  0
    2.1301    2.2451    0.4834 C   0  0  0  0  0  0  0  0  0  0  0  0
    2.0945    0.4013   -1.5403 H   0  0  0  0  0  0  0  0  0  0  0  0
   -0.5475   -0.7387   -2.3475 H   0  0  0  0  0  0  0  0  0  0  0  0
    0.2144    0.8382   -2.4499 H   0  0  0  0  0  0  0  0  0  0  0  0
    0.4762   -2.5518   -1.4586 H   0  0  0  0  0  0  0  0  0  0  0  0
    1.0193   -3.2602    0.0621 H   0  0  0  0  0  0  0  0  0  0  0  0
   -1.8770   -2.4671    0.7823 H   0  0  0  0  0  0  0  0  0  0  0  0
   -1.8457   -1.8863   -0.8495 H   0  0  0  0  0  0  0  0  0  0  0  0
    2.8477   -1.8002    0.2271 H   0  0  0  0  0  0  0  0  0  0  0  0
    2.6946   -1.7832   -1.5283 H   0  0  0  0  0  0  0  0  0  0  0  0
   -1.6213    1.9391   -1.9130 H   0  0  0  0  0  0  0  0  0  0  0  0
   -2.5581    0.4501   -1.9639 H   0  0  0  0  0  0  0  0  0  0  0  0
   -2.2904   -0.2853    1.7069 H   0  0  0  0  0  0  0  0  0  0  0  0
    2.3858    0.3927    1.4933 H   0  0  0  0  0  0  0  0  0  0  0  0
    1.3858   -1.4199    1.9797 H   0  0  0  0  0  0  0  0  0  0  0  0
   -0.0926   -0.5358    2.3488 H   0  0  0  0  0  0  0  0  0  0  0  0
   -0.0933   -2.3001    2.2622 H   0  0  0  0  0  0  0  0  0  0  0  0
   -2.4012    2.2310    1.6475 H   0  0  0  0  0  0  0  0  0  0  0  0
   -1.9424    3.1144    0.2049 H   0  0  0  0  0  0  0  0  0  0  0  0
   -3.4863    2.2341    0.2382 H   0  0  0  0  0  0  0  0  0  0  0  0
    4.3544    1.0493   -0.7378 H   0  0  0  0  0  0  0  0  0  0  0  0
    4.6264    1.2811    0.9940 H   0  0  0  0  0  0  0  0  0  0  0  0
    4.4506   -0.3437    0.3519 H   0  0  0  0  0  0  0  0  0  0  0  0
    1.8687    2.5969   -0.5202 H   0  0  0  0  0  0  0  0  0  0  0  0
    2.9318    2.8960    0.8526 H   0  0  0  0  0  0  0  0  0  0  0  0
    1.2891    2.4253    1.1576 H   0  0  0  0  0  0  0  0  0  0  0  0
   -3.7877   -0.7047   -0.6594 H   0  0  0  0  0  0  0  0  0  0  0  0
  1  3  1  0  0  0  0
  1  6  1  0  0  0  0
  2 12  1  0  0  0  0
  2 43  1  0  0  0  0
  3  4  1  0  0  0  0
  3  5  1  0  0  0  0
  3  7  1  0  0  0  0
  4  8  1  0  0  0  0
  4  9  1  0  0  0  0
  4 14  1  0  0  0  0
  5 10  1  0  0  0  0
  5 13  1  0  0  0  0
  5 18  1  0  0  0  0
  6 11  1  0  0  0  0
  6 12  1  0  0  0  0
  6 15  1  0  0  0  0
  7 11  1  0  0  0  0
  7 19  1  0  0  0  0
  7 20  1  0  0  0  0
  8 10  1  0  0  0  0
  8 21  1  0  0  0  0
  8 22  1  0  0  0  0
  9 12  1  0  0  0  0
  9 23  1  0  0  0  0
  9 24  1  0  0  0  0
 10 25  1  0  0  0  0
 10 26  1  0  0  0  0
 11 27  1  0  0  0  0
 11 28  1  0  0  0  0
 12 29  1  0  0  0  0
 13 16  1  0  0  0  0
 13 17  1  0  0  0  0
 13 30  1  0  0  0  0
 14 31  1  0  0  0  0
 14 32  1  0  0  0  0
 14 33  1  0  0  0  0
 15 34  1  0  0  0  0
 15 35  1  0  0  0  0
 15 36  1  0  0  0  0
 16 37  1  0  0  0  0
 16 38  1  0  0  0  0
 16 39  1  0  0  0  0
 17 40  1  0  0  0  0
 17 41  1  0  0  0  0
 17 42  1  0  0  0  0
M  END
> <PUBCHEM_COMPOUND_CID>
442363

> <PUBCHEM_CONFORMER_RMSD>
0.6

> <PUBCHEM_CONFORMER_DIVERSEORDER>
1

> <PUBCHEM_MMFF94_PARTIAL_CHARGES>
6
1 -0.56
12 0.28
2 -0.68
3 0.28
43 0.4
6 0.28

> <PUBCHEM_EFFECTIVE_ROTOR_COUNT>
2.6

> <PUBCHEM_PHARMACOPHORE_FEATURES>
6
1 1 acceptor
1 2 acceptor
1 2 donor
3 13 16 17 hydrophobe
5 3 4 5 8 10 rings
8 1 3 4 6 7 9 11 12 rings

> <PUBCHEM_HEAVY_ATOM_COUNT>
17

> <PUBCHEM_ATOM_DEF_STEREO_COUNT>
5

> <PUBCHEM_ATOM_UDEF_STEREO_COUNT>
0

> <PUBCHEM_BOND_DEF_STEREO_COUNT>
0

> <PUBCHEM_BOND_UDEF_STEREO_COUNT>
0

> <PUBCHEM_ISOTOPIC_ATOM_COUNT>
0

> <PUBCHEM_COMPONENT_COUNT>
1

> <PUBCHEM_CACTVS_TAUTO_COUNT>
1

> <PUBCHEM_CONFORMER_ID>
0006BFFB00000001

> <PUBCHEM_MMFF94_ENERGY>
81.76

> <PUBCHEM_FEATURE_SELFOVERLAP>
30.514

> <PUBCHEM_SHAPE_FINGERPRINT>
10863032 1 18200881651625939355
10948715 1 18272934946338339489
10967382 1 18341054098347124384
11132069 177 18265048209619808288
11680611 10 16011316553988902859
12011746 2 18336269028254379548
12423570 1 14756966274240367103
12491281 212 18341065024743912658
12808571 1 17988925535306887377
13024252 1 12468897815387732614
13027679 85 17471580923351063334
13140716 1 18049450532275084859
13172582 1 17749392632159992183
13581323 91 17967528008575819016
144361 1 17824289079316437879
14614273 12 17967805029502677887
14648413 74 18054512408878567807
14787075 74 18192995052715620179
14817 1 14492155178091168215
15219456 202 18412266099408549102
15775835 57 17968089807309271576
15852999 172 17969198106255571039
15881359 60 17678722651929842679
16945 1 18338813302382199727
18981168 100 18200576013189751425
20525323 117 18410569595858541423
20645476 183 14476972202443328077
21501502 16 18338800004994704691
21524375 3 18335416885399761786
22344851 341 18115870702469342474
2334 1 18338240357897319367
23388829 49 16824464999858925670
23402539 116 18337663234736736551
23419403 2 14136599467108342223
25 1 18267868289789742108
2748010 2 18262245391425032263
3286 77 18336830792786511406
5084963 1 17895485734290759606
5255222 1 17680712506041114623
528886 8 18130783499125732970
5845 1 12240955568995493997
7364860 26 18197782106888583822
7832392 63 17983300322113372393
81228 2 17897176911981346954

> <PUBCHEM_SHAPE_MULTIPOLES>
338.11
4.66
2.3
1.29
1.24
0.04
-0.18
1.61
0.65
0.2
0.34
-0.21
-0.1
0.41

> <PUBCHEM_SHAPE_SELFOVERLAP>
718.887

> <PUBCHEM_SHAPE_VOLUME>
192.6

> <PUBCHEM_COORDINATE_TYPE>
2
5
10

$$$$
