101140028
  -OEChem-02172602453D

 46 49  0     1  0  0  0  0  0999 V2000
   -2.3402   -3.7578   -0.6215 O   0  5  0  0  0  0  0  0  0  0  0  0
    0.6093    2.8685    0.4681 O   0  0  0  0  0  0  0  0  0  0  0  0
   -1.8588    3.9237    0.4297 O   0  0  0  0  0  0  0  0  0  0  0  0
    4.6332    0.8151   -0.5941 O   0  0  0  0  0  0  0  0  0  0  0  0
    4.8243   -1.9123   -0.1166 O   0  0  0  0  0  0  0  0  0  0  0  0
   -2.5047   -2.5105   -0.0520 N   0  3  1  0  0  0  0  0  0  0  0  0
   -1.2403   -1.6775   -0.2857 C   0  0  1  0  0  0  0  0  0  0  0  0
   -1.4107   -0.1792   -0.0796 C   0  0  0  0  0  0  0  0  0  0  0  0
   -3.6606   -1.8312   -0.7538 C   0  0  0  0  0  0  0  0  0  0  0  0
   -0.0253   -2.2106    0.4947 C   0  0  0  0  0  0  0  0  0  0  0  0
   -3.9374   -0.4346   -0.2191 C   0  0  0  0  0  0  0  0  0  0  0  0
   -2.6937    0.4026   -0.0865 C   0  0  0  0  0  0  0  0  0  0  0  0
   -0.2489    0.6281    0.0389 C   0  0  0  0  0  0  0  0  0  0  0  0
    1.2104   -1.3990    0.1885 C   0  0  0  0  0  0  0  0  0  0  0  0
   -2.8139   -2.7074    1.4092 C   0  0  0  0  0  0  0  0  0  0  0  0
    1.0930   -0.0053   -0.0168 C   0  0  0  0  0  0  0  0  0  0  0  0
   -2.8251    1.7841    0.0888 C   0  0  0  0  0  0  0  0  0  0  0  0
   -0.4253    2.0119    0.2142 C   0  0  0  0  0  0  0  0  0  0  0  0
   -1.6980    2.5828    0.2411 C   0  0  0  0  0  0  0  0  0  0  0  0
    2.4654   -2.0261    0.1671 C   0  0  0  0  0  0  0  0  0  0  0  0
    2.2718    0.7137   -0.2849 C   0  0  0  0  0  0  0  0  0  0  0  0
    3.6153   -1.2868   -0.0897 C   0  0  0  0  0  0  0  0  0  0  0  0
    3.5180    0.0805   -0.3204 C   0  0  0  0  0  0  0  0  0  0  0  0
   -1.8794    4.7428   -0.7370 C   0  0  0  0  0  0  0  0  0  0  0  0
    5.3215    1.3846    0.5173 C   0  0  0  0  0  0  0  0  0  0  0  0
   -1.0465   -1.8141   -1.3615 H   0  0  0  0  0  0  0  0  0  0  0  0
   -4.5333   -2.4849   -0.6427 H   0  0  0  0  0  0  0  0  0  0  0  0
   -3.3867   -1.8031   -1.8164 H   0  0  0  0  0  0  0  0  0  0  0  0
    0.1398   -3.2650    0.2431 H   0  0  0  0  0  0  0  0  0  0  0  0
   -0.1893   -2.1540    1.5778 H   0  0  0  0  0  0  0  0  0  0  0  0
   -4.4172   -0.4979    0.7649 H   0  0  0  0  0  0  0  0  0  0  0  0
   -4.6463    0.0602   -0.8940 H   0  0  0  0  0  0  0  0  0  0  0  0
   -3.8106   -3.1520    1.4781 H   0  0  0  0  0  0  0  0  0  0  0  0
   -2.7720   -1.7453    1.9221 H   0  0  0  0  0  0  0  0  0  0  0  0
   -2.0763   -3.4030    1.8180 H   0  0  0  0  0  0  0  0  0  0  0  0
   -3.8139    2.2367    0.1123 H   0  0  0  0  0  0  0  0  0  0  0  0
    2.5353   -3.0960    0.3501 H   0  0  0  0  0  0  0  0  0  0  0  0
    2.2636    1.7694   -0.5328 H   0  0  0  0  0  0  0  0  0  0  0  0
    0.2607    3.7601    0.6376 H   0  0  0  0  0  0  0  0  0  0  0  0
    4.6961   -2.8592    0.0651 H   0  0  0  0  0  0  0  0  0  0  0  0
   -1.9668    5.7861   -0.4217 H   0  0  0  0  0  0  0  0  0  0  0  0
   -2.7422    4.4931   -1.3626 H   0  0  0  0  0  0  0  0  0  0  0  0
   -0.9546    4.6272   -1.3111 H   0  0  0  0  0  0  0  0  0  0  0  0
    6.1877    1.9343    0.1389 H   0  0  0  0  0  0  0  0  0  0  0  0
    5.6735    0.6012    1.1960 H   0  0  0  0  0  0  0  0  0  0  0  0
    4.6712    2.0826    1.0541 H   0  0  0  0  0  0  0  0  0  0  0  0
  1  6  1  0  0  0  0
  2 18  1  0  0  0  0
  2 39  1  0  0  0  0
  3 19  1  0  0  0  0
  3 24  1  0  0  0  0
  4 23  1  0  0  0  0
  4 25  1  0  0  0  0
  5 22  1  0  0  0  0
  5 40  1  0  0  0  0
  6  7  1  0  0  0  0
  6  9  1  0  0  0  0
  6 15  1  0  0  0  0
  7  8  1  0  0  0  0
  7 10  1  0  0  0  0
  7 26  1  0  0  0  0
  8 12  1  0  0  0  0
  8 13  2  0  0  0  0
  9 11  1  0  0  0  0
  9 27  1  0  0  0  0
  9 28  1  0  0  0  0
 10 14  1  0  0  0  0
 10 29  1  0  0  0  0
 10 30  1  0  0  0  0
 11 12  1  0  0  0  0
 11 31  1  0  0  0  0
 11 32  1  0  0  0  0
 12 17  2  0  0  0  0
 13 16  1  0  0  0  0
 13 18  1  0  0  0  0
 14 16  1  0  0  0  0
 14 20  2  0  0  0  0
 15 33  1  0  0  0  0
 15 34  1  0  0  0  0
 15 35  1  0  0  0  0
 16 21  2  0  0  0  0
 17 19  1  0  0  0  0
 17 36  1  0  0  0  0
 18 19  2  0  0  0  0
 20 22  1  0  0  0  0
 20 37  1  0  0  0  0
 21 23  1  0  0  0  0
 21 38  1  0  0  0  0
 22 23  2  0  0  0  0
 24 41  1  0  0  0  0
 24 42  1  0  0  0  0
 24 43  1  0  0  0  0
 25 44  1  0  0  0  0
 25 45  1  0  0  0  0
 25 46  1  0  0  0  0
M  CHG  2   1  -1   6   1
M  END
> <PUBCHEM_COMPOUND_CID>
101140028

> <PUBCHEM_CONFORMER_RMSD>
0.6

> <PUBCHEM_CONFORMER_DIVERSEORDER>
1
4
2
3

> <PUBCHEM_MMFF94_PARTIAL_CHARGES>
28
1 -0.75
10 0.14
11 0.14
12 -0.14
14 -0.14
15 0.26
17 -0.15
18 0.08
19 0.08
2 -0.53
20 -0.15
21 -0.15
22 0.08
23 0.08
24 0.28
25 0.28
3 -0.36
36 0.15
37 0.15
38 0.15
39 0.45
4 -0.36
40 0.45
5 -0.53
6 -0.02
7 0.4
8 -0.14
9 0.26

> <PUBCHEM_EFFECTIVE_ROTOR_COUNT>
2.8

> <PUBCHEM_PHARMACOPHORE_FEATURES>
9
1 1 anion
1 2 donor
1 3 acceptor
1 4 acceptor
1 5 donor
6 14 16 20 21 22 23 rings
6 6 7 8 9 11 12 rings
6 7 8 10 13 14 16 rings
6 8 12 13 17 18 19 rings

> <PUBCHEM_HEAVY_ATOM_COUNT>
25

> <PUBCHEM_ATOM_DEF_STEREO_COUNT>
2

> <PUBCHEM_ATOM_UDEF_STEREO_COUNT>
0

> <PUBCHEM_BOND_DEF_STEREO_COUNT>
0

> <PUBCHEM_BOND_UDEF_STEREO_COUNT>
0

> <PUBCHEM_ISOTOPIC_ATOM_COUNT>
0

> <PUBCHEM_COMPONENT_COUNT>
1

> <PUBCHEM_CACTVS_TAUTO_COUNT>
56

> <PUBCHEM_CONFORMER_ID>
0607463C00000001

> <PUBCHEM_MMFF94_ENERGY>
106.3402

> <PUBCHEM_FEATURE_SELFOVERLAP>
45.755

> <PUBCHEM_SHAPE_FINGERPRINT>
10319926 262 18197474279074026042
10411042 1 18122907804520738911
10616163 171 18340208492544280822
10670039 82 18263940976717657172
10906281 52 18270976686744890559
10967382 1 17762618795085553019
1100329 8 18338521966561621105
11578080 2 17346019182297512579
12107183 9 17758951520729270122
12173636 292 18266456503668957469
12553582 1 18339073891212589763
12788726 201 18335130990606421931
13027679 85 18338797926837051997
13140716 1 18266184018275016617
138480 1 15960897993310255853
14081887 123 18341600543068398624
14178342 30 18335975399053016528
14363568 33 17398128521456151313
14787075 74 18044938124070852914
14790565 3 18053388699896572777
15042514 8 18409738343967678787
15196674 1 18411136909345637686
16087824 20 18410857647511753245
16752209 62 18195513801763136129
16945 1 18411411826297651555
17492 89 18410294688330808402
19591789 44 18051416171545332337
19930381 70 17762335120937887289
20028762 73 14523142216144798622
20510252 161 18343022142593615689
20775438 99 16904916158875592695
21029758 11 18267300013802560567
21267235 1 18410302380263430950
221490 88 17976541933496618691
2334 1 17978228588818095681
23402539 116 18268986660714003430
23557571 272 18201728340573587748
23558518 356 18261401014082327890
23559900 14 18342454812612010362
238 59 16382513518162837605
25147074 1 18113902616381207302
2748010 2 18123739022821587401
3091708 16 9060380974630364419
335352 9 17617659860979979366
3380486 145 18265345069507477251
34934 24 18410849992788242503
350125 39 18193842526708983641
352729 6 17836644128458643785
392239 28 18267866262749814704
469060 322 18193014817870287160
5104073 3 18410856547409295626
70251023 43 17834950150899026167
9709674 26 18270686355393206534

> <PUBCHEM_SHAPE_MULTIPOLES>
480.16
8.02
4.9
0.81
9.87
3.74
0.08
-1.35
-0.45
-4.62
-0.04
-0.28
-0.17
0.17

> <PUBCHEM_SHAPE_SELFOVERLAP>
1058.53

> <PUBCHEM_SHAPE_VOLUME>
259.4

> <PUBCHEM_COORDINATE_TYPE>
2
5
10

$$$$
