10095819
  -OEChem-02172602513D

 59 61  0     1  0  0  0  0  0999 V2000
    1.7772    2.0687    0.7873 O   0  0  0  0  0  0  0  0  0  0  0  0
   -6.5169   -0.0577   -1.0595 O   0  0  0  0  0  0  0  0  0  0  0  0
    0.5743    2.7207   -1.6167 O   0  0  0  0  0  0  0  0  0  0  0  0
    3.3889   -3.3840    1.0768 O   0  0  0  0  0  0  0  0  0  0  0  0
   -4.4705    0.5506    1.5346 N   0  0  2  0  0  0  0  0  0  0  0  0
   -4.4709   -1.0193   -0.9368 N   0  0  0  0  0  0  0  0  0  0  0  0
    4.1795   -1.1988    1.0391 N   0  0  0  0  0  0  0  0  0  0  0  0
   -2.5543   -2.2483   -1.2815 N   0  0  0  0  0  0  0  0  0  0  0  0
   -3.0163    0.3698    1.4971 C   0  0  0  0  0  0  0  0  0  0  0  0
   -2.4816   -0.6604    0.5324 C   0  0  0  0  0  0  0  0  0  0  0  0
   -4.9343    1.1012    0.2678 C   0  0  0  0  0  0  0  0  0  0  0  0
   -3.1470   -1.2786   -0.5271 C   0  0  0  0  0  0  0  0  0  0  0  0
   -1.1389   -1.0407    0.7459 C   0  0  0  0  0  0  0  0  0  0  0  0
   -5.3690   -0.0433   -0.6007 C   0  0  0  0  0  0  0  0  0  0  0  0
   -4.8247    1.4484    2.6390 C   0  0  0  0  0  0  0  0  0  0  0  0
   -0.5210   -2.0074   -0.0333 C   0  0  0  0  0  0  0  0  0  0  0  0
    3.9548    0.2415    0.9316 C   0  0  0  0  0  0  0  0  0  0  0  0
    3.2855    0.6108   -0.3607 C   0  0  0  0  0  0  0  0  0  0  0  0
   -1.2736   -2.5852   -1.0267 C   0  0  0  0  0  0  0  0  0  0  0  0
    2.2249    1.5103   -0.3735 C   0  0  0  0  0  0  0  0  0  0  0  0
    0.8557   -2.4013    0.1984 C   0  0  0  0  0  0  0  0  0  0  0  0
    3.1767   -2.1722    1.0133 C   0  0  0  0  0  0  0  0  0  0  0  0
    3.7436    0.0396   -1.5431 C   0  0  0  0  0  0  0  0  0  0  0  0
    1.7780   -1.6709    0.8695 C   0  0  0  0  0  0  0  0  0  0  0  0
    1.6148    1.8423   -1.5833 C   0  0  0  0  0  0  0  0  0  0  0  0
    5.5731   -1.6104    1.1473 C   0  0  0  0  0  0  0  0  0  0  0  0
    3.1336    0.3715   -2.7527 C   0  0  0  0  0  0  0  0  0  0  0  0
    2.0693    1.2729   -2.7728 C   0  0  0  0  0  0  0  0  0  0  0  0
    2.3821    3.2952    1.1902 C   0  0  0  0  0  0  0  0  0  0  0  0
    1.7446    3.7580    2.4830 C   0  0  0  0  0  0  0  0  0  0  0  0
   -0.7377    2.1769   -1.4848 C   0  0  0  0  0  0  0  0  0  0  0  0
   -2.7040    0.0446    2.4997 H   0  0  0  0  0  0  0  0  0  0  0  0
   -2.5114    1.3262    1.3028 H   0  0  0  0  0  0  0  0  0  0  0  0
   -5.8204    1.7344    0.4101 H   0  0  0  0  0  0  0  0  0  0  0  0
   -4.1911    1.7144   -0.2563 H   0  0  0  0  0  0  0  0  0  0  0  0
   -0.6071   -0.5646    1.5678 H   0  0  0  0  0  0  0  0  0  0  0  0
   -4.8059   -1.6844   -1.6300 H   0  0  0  0  0  0  0  0  0  0  0  0
   -4.4923    1.0335    3.5972 H   0  0  0  0  0  0  0  0  0  0  0  0
   -4.3835    2.4449    2.5207 H   0  0  0  0  0  0  0  0  0  0  0  0
   -5.9128    1.5571    2.7114 H   0  0  0  0  0  0  0  0  0  0  0  0
    3.3620    0.5272    1.8069 H   0  0  0  0  0  0  0  0  0  0  0  0
    4.9103    0.7754    1.0038 H   0  0  0  0  0  0  0  0  0  0  0  0
   -0.8737   -3.3565   -1.6779 H   0  0  0  0  0  0  0  0  0  0  0  0
    1.1581   -3.3411   -0.2593 H   0  0  0  0  0  0  0  0  0  0  0  0
    4.5781   -0.6550   -1.5571 H   0  0  0  0  0  0  0  0  0  0  0  0
    1.5299   -0.7319    1.3448 H   0  0  0  0  0  0  0  0  0  0  0  0
    5.9997   -1.1654    2.0513 H   0  0  0  0  0  0  0  0  0  0  0  0
    6.1222   -1.2550    0.2707 H   0  0  0  0  0  0  0  0  0  0  0  0
    5.6734   -2.6969    1.2092 H   0  0  0  0  0  0  0  0  0  0  0  0
    3.4889   -0.0696   -3.6793 H   0  0  0  0  0  0  0  0  0  0  0  0
    1.5996    1.5275   -3.7189 H   0  0  0  0  0  0  0  0  0  0  0  0
    3.4582    3.1518    1.3396 H   0  0  0  0  0  0  0  0  0  0  0  0
    2.2336    4.0551    0.4145 H   0  0  0  0  0  0  0  0  0  0  0  0
    1.8752    3.0053    3.2674 H   0  0  0  0  0  0  0  0  0  0  0  0
    0.6664    3.8974    2.3523 H   0  0  0  0  0  0  0  0  0  0  0  0
    2.1844    4.7004    2.8208 H   0  0  0  0  0  0  0  0  0  0  0  0
   -0.8948    1.8390   -0.4579 H   0  0  0  0  0  0  0  0  0  0  0  0
   -0.8951    1.3497   -2.1844 H   0  0  0  0  0  0  0  0  0  0  0  0
   -1.4608    2.9664   -1.7065 H   0  0  0  0  0  0  0  0  0  0  0  0
  1 20  1  0  0  0  0
  1 29  1  0  0  0  0
  2 14  2  0  0  0  0
  3 25  1  0  0  0  0
  3 31  1  0  0  0  0
  4 22  2  0  0  0  0
  5  9  1  0  0  0  0
  5 11  1  0  0  0  0
  5 15  1  0  0  0  0
  6 12  1  0  0  0  0
  6 14  1  0  0  0  0
  6 37  1  0  0  0  0
  7 17  1  0  0  0  0
  7 22  1  0  0  0  0
  7 26  1  0  0  0  0
  8 12  1  0  0  0  0
  8 19  2  0  0  0  0
  9 10  1  0  0  0  0
  9 32  1  0  0  0  0
  9 33  1  0  0  0  0
 10 12  2  0  0  0  0
 10 13  1  0  0  0  0
 11 14  1  0  0  0  0
 11 34  1  0  0  0  0
 11 35  1  0  0  0  0
 13 16  2  0  0  0  0
 13 36  1  0  0  0  0
 15 38  1  0  0  0  0
 15 39  1  0  0  0  0
 15 40  1  0  0  0  0
 16 19  1  0  0  0  0
 16 21  1  0  0  0  0
 17 18  1  0  0  0  0
 17 41  1  0  0  0  0
 17 42  1  0  0  0  0
 18 20  2  0  0  0  0
 18 23  1  0  0  0  0
 19 43  1  0  0  0  0
 20 25  1  0  0  0  0
 21 24  2  0  0  0  0
 21 44  1  0  0  0  0
 22 24  1  0  0  0  0
 23 27  2  0  0  0  0
 23 45  1  0  0  0  0
 24 46  1  0  0  0  0
 25 28  2  0  0  0  0
 26 47  1  0  0  0  0
 26 48  1  0  0  0  0
 26 49  1  0  0  0  0
 27 28  1  0  0  0  0
 27 50  1  0  0  0  0
 28 51  1  0  0  0  0
 29 30  1  0  0  0  0
 29 52  1  0  0  0  0
 29 53  1  0  0  0  0
 30 54  1  0  0  0  0
 30 55  1  0  0  0  0
 30 56  1  0  0  0  0
 31 57  1  0  0  0  0
 31 58  1  0  0  0  0
 31 59  1  0  0  0  0
M  END
> <PUBCHEM_COMPOUND_CID>
10095819

> <PUBCHEM_CONFORMER_RMSD>
1

> <PUBCHEM_CONFORMER_DIVERSEORDER>
1
4
116
207
130
91
115
48
109
94
152
103
51
195
135
208
198
215
123
86
31
165
99
62
76
222
24
22
192
190
112
132
187
79
139
9
127
178
97
162
77
121
3
175
150
140
160
194
159
185
52
14
189
57
49
180
69
2
203
25
146
169
32
170
171
122
45
149
125
38
219
101
104
96
158
113
65
172
217
70
84
73
183
56
107
221
137
211
18
197
177
191
225
111
220
153
40
80
74
202
54
200
210
58
34
23
147
53
67
214
72
100
142
78
206
143
129
68
102
166
66
60
204
118
181
71
196
47
46
144
110
8
157
184
209
12
63
5
41
163
81
213
218
226
19
126
167
119
13
88
83
117
27
28
141
188
20
134
173
154
128
205
124
61
151
59
36
201
199
161
168
224
11
114
7
98
82
138
164
35
39
216
10
92
176
182
131
90
223
43
50
108
174
179
16
156
85
212
33
87
155
6
44
55
145
193
105
15
42
120
136
21
64
227
75
95
106
30
186
133
26
17
148
89
29
93
37

> <PUBCHEM_MMFF94_PARTIAL_CHARGES>
38
1 -0.36
10 -0.14
11 0.33
12 0.43
13 -0.15
14 0.57
15 0.27
16 0.03
17 0.44
18 -0.14
19 0.16
2 -0.57
20 0.08
21 -0.18
22 0.62
23 -0.15
24 -0.14
25 0.08
26 0.3
27 -0.15
28 -0.15
29 0.28
3 -0.36
31 0.28
36 0.15
37 0.37
4 -0.57
43 0.15
44 0.15
45 0.15
46 0.15
5 -0.81
50 0.15
51 0.15
6 -0.55
7 -0.66
8 -0.62
9 0.41

> <PUBCHEM_EFFECTIVE_ROTOR_COUNT>
8.8

> <PUBCHEM_PHARMACOPHORE_FEATURES>
10
1 1 acceptor
1 2 acceptor
1 3 acceptor
1 4 acceptor
1 5 cation
1 6 donor
1 8 acceptor
6 18 20 23 25 27 28 rings
6 8 10 12 13 16 19 rings
7 5 6 9 10 11 12 14 rings

> <PUBCHEM_HEAVY_ATOM_COUNT>
31

> <PUBCHEM_ATOM_DEF_STEREO_COUNT>
0

> <PUBCHEM_ATOM_UDEF_STEREO_COUNT>
0

> <PUBCHEM_BOND_DEF_STEREO_COUNT>
1

> <PUBCHEM_BOND_UDEF_STEREO_COUNT>
0

> <PUBCHEM_ISOTOPIC_ATOM_COUNT>
0

> <PUBCHEM_COMPONENT_COUNT>
1

> <PUBCHEM_CACTVS_TAUTO_COUNT>
4

> <PUBCHEM_CONFORMER_ID>
009A0CCB00000001

> <PUBCHEM_MMFF94_ENERGY>
121.3563

> <PUBCHEM_FEATURE_SELFOVERLAP>
50.761

> <PUBCHEM_SHAPE_FINGERPRINT>
11582403 64 16479926374702844416
11828532 37 17488452152760656775
12422481 6 18192148187864295035
12633257 1 18201720656502938448
13617811 41 16702293565204845333
151778 21 17241627184664482782
17980427 23 17988075591871437243
18336668 15 18262796259798876424
21133410 90 18057577933708843569
21860390 5 17632296821846581368
23559900 14 15068631457050019559
338550 245 17895473609856838845
474 4 18260828202673563675
508706 21 16878780483972576501
513532 50 17704077253107568582
5895379 119 17489602150879385480

> <PUBCHEM_SHAPE_MULTIPOLES>
594.56
11.35
3.82
2.48
12.27
1.16
0.55
-1.18
-1.91
-2.94
-1.45
-0.91
1.6
-2.14

> <PUBCHEM_SHAPE_SELFOVERLAP>
1256.054

> <PUBCHEM_SHAPE_VOLUME>
332.3

> <PUBCHEM_COORDINATE_TYPE>
2
5
10

$$$$
