99190
  -OEChem-02172602363D

 49 53  0     1  0  0  0  0  0999 V2000
   -5.3468   -0.9916   -0.1761 O   0  0  0  0  0  0  0  0  0  0  0  0
   -1.1786    1.1043   -0.1128 O   0  0  0  0  0  0  0  0  0  0  0  0
    2.1524    2.4731    0.4034 O   0  0  0  0  0  0  0  0  0  0  0  0
    0.7923   -2.4295    0.3134 O   0  0  0  0  0  0  0  0  0  0  0  0
    5.5231   -1.7720   -0.5766 O   0  0  0  0  0  0  0  0  0  0  0  0
    6.5375    0.7525   -0.0228 O   0  0  0  0  0  0  0  0  0  0  0  0
   -4.1666    1.1298   -0.2205 C   0  0  0  0  0  0  0  0  0  0  0  0
   -3.2492   -0.0316   -0.1580 C   0  0  0  0  0  0  0  0  0  0  0  0
   -5.4710    0.3987   -0.5756 C   0  0  2  0  0  0  0  0  0  0  0  0
   -1.8683   -0.0727   -0.0850 C   0  0  0  0  0  0  0  0  0  0  0  0
   -3.9925   -1.2009   -0.1116 C   0  0  0  0  0  0  0  0  0  0  0  0
   -1.2460   -1.3148    0.0275 C   0  0  0  0  0  0  0  0  0  0  0  0
    0.9425   -0.0669   -0.0299 C   0  0  0  0  0  0  0  0  0  0  0  0
    0.2022    1.0536   -0.1086 C   0  0  0  0  0  0  0  0  0  0  0  0
    0.2245   -1.3647    0.1119 C   0  0  0  0  0  0  0  0  0  0  0  0
   -6.6691    0.9924    0.0867 C   0  0  0  0  0  0  0  0  0  0  0  0
   -3.3999   -2.4429    0.0121 C   0  0  0  0  0  0  0  0  0  0  0  0
   -2.0060   -2.4986    0.0783 C   0  0  0  0  0  0  0  0  0  0  0  0
    2.4065    0.1016   -0.0749 C   0  0  0  0  0  0  0  0  0  0  0  0
    0.8494    2.4053   -0.1892 C   0  0  0  0  0  0  0  0  0  0  0  0
    2.9421    1.3788    0.1598 C   0  0  0  0  0  0  0  0  0  0  0  0
    3.3009   -0.9455   -0.3352 C   0  0  0  0  0  0  0  0  0  0  0  0
   -6.9890    0.4786    1.4591 C   0  0  0  0  0  0  0  0  0  0  0  0
    4.3228    1.5929    0.1962 C   0  0  0  0  0  0  0  0  0  0  0  0
   -7.4167    1.9321   -0.5109 C   0  0  0  0  0  0  0  0  0  0  0  0
    4.6829   -0.7295   -0.3209 C   0  0  0  0  0  0  0  0  0  0  0  0
    5.1935    0.5358   -0.0469 C   0  0  0  0  0  0  0  0  0  0  0  0
    5.9514   -2.5472    0.5409 C   0  0  0  0  0  0  0  0  0  0  0  0
    6.9758    2.0790    0.2663 C   0  0  0  0  0  0  0  0  0  0  0  0
   -4.2073    1.6298    0.7534 H   0  0  0  0  0  0  0  0  0  0  0  0
   -3.8912    1.8535   -0.9935 H   0  0  0  0  0  0  0  0  0  0  0  0
   -5.6051    0.3928   -1.6673 H   0  0  0  0  0  0  0  0  0  0  0  0
   -3.9930   -3.3497    0.0546 H   0  0  0  0  0  0  0  0  0  0  0  0
   -1.5253   -3.4689    0.1720 H   0  0  0  0  0  0  0  0  0  0  0  0
    0.9160    2.7340   -1.2333 H   0  0  0  0  0  0  0  0  0  0  0  0
    0.2341    3.1391    0.3437 H   0  0  0  0  0  0  0  0  0  0  0  0
    2.9459   -1.9454   -0.5666 H   0  0  0  0  0  0  0  0  0  0  0  0
   -7.2976   -0.5711    1.4228 H   0  0  0  0  0  0  0  0  0  0  0  0
   -6.1204    0.5682    2.1196 H   0  0  0  0  0  0  0  0  0  0  0  0
   -7.8068    1.0418    1.9221 H   0  0  0  0  0  0  0  0  0  0  0  0
    4.6510    2.6053    0.4073 H   0  0  0  0  0  0  0  0  0  0  0  0
   -8.2866    2.3580   -0.0222 H   0  0  0  0  0  0  0  0  0  0  0  0
   -7.1734    2.2972   -1.5033 H   0  0  0  0  0  0  0  0  0  0  0  0
    5.0937   -3.0173    1.0327 H   0  0  0  0  0  0  0  0  0  0  0  0
    6.4994   -1.9246    1.2552 H   0  0  0  0  0  0  0  0  0  0  0  0
    6.6196   -3.3327    0.1773 H   0  0  0  0  0  0  0  0  0  0  0  0
    6.6765    2.3929    1.2721 H   0  0  0  0  0  0  0  0  0  0  0  0
    6.6540    2.7871   -0.5050 H   0  0  0  0  0  0  0  0  0  0  0  0
    8.0707    2.0671    0.2498 H   0  0  0  0  0  0  0  0  0  0  0  0
  1  9  1  0  0  0  0
  1 11  1  0  0  0  0
  2 10  1  0  0  0  0
  2 14  1  0  0  0  0
  3 20  1  0  0  0  0
  3 21  1  0  0  0  0
  4 15  2  0  0  0  0
  5 26  1  0  0  0  0
  5 28  1  0  0  0  0
  6 27  1  0  0  0  0
  6 29  1  0  0  0  0
  7  8  1  0  0  0  0
  7  9  1  0  0  0  0
  7 30  1  0  0  0  0
  7 31  1  0  0  0  0
  8 10  1  0  0  0  0
  8 11  2  0  0  0  0
  9 16  1  0  0  0  0
  9 32  1  0  0  0  0
 10 12  2  0  0  0  0
 11 17  1  0  0  0  0
 12 15  1  0  0  0  0
 12 18  1  0  0  0  0
 13 14  2  0  0  0  0
 13 15  1  0  0  0  0
 13 19  1  0  0  0  0
 14 20  1  0  0  0  0
 16 23  1  0  0  0  0
 16 25  2  0  0  0  0
 17 18  2  0  0  0  0
 17 33  1  0  0  0  0
 18 34  1  0  0  0  0
 19 21  1  0  0  0  0
 19 22  2  0  0  0  0
 20 35  1  0  0  0  0
 20 36  1  0  0  0  0
 21 24  2  0  0  0  0
 22 26  1  0  0  0  0
 22 37  1  0  0  0  0
 23 38  1  0  0  0  0
 23 39  1  0  0  0  0
 23 40  1  0  0  0  0
 24 27  1  0  0  0  0
 24 41  1  0  0  0  0
 25 42  1  0  0  0  0
 25 43  1  0  0  0  0
 26 27  2  0  0  0  0
 28 44  1  0  0  0  0
 28 45  1  0  0  0  0
 28 46  1  0  0  0  0
 29 47  1  0  0  0  0
 29 48  1  0  0  0  0
 29 49  1  0  0  0  0
M  END
> <PUBCHEM_COMPOUND_CID>
99190

> <PUBCHEM_CONFORMER_RMSD>
0.8

> <PUBCHEM_CONFORMER_DIVERSEORDER>
1
2

> <PUBCHEM_MMFF94_PARTIAL_CHARGES>
35
1 -0.36
10 0.08
11 0.08
12 0.09
13 -0.01
14 -0.06
15 0.47
16 -0.28
17 -0.15
18 -0.15
19 0.03
2 -0.16
20 0.42
21 0.08
22 -0.15
23 0.14
24 -0.15
25 -0.3
26 0.08
27 0.08
28 0.28
29 0.28
3 -0.36
33 0.15
34 0.15
37 0.15
4 -0.57
41 0.15
42 0.15
43 0.15
5 -0.36
6 -0.36
7 0.14
8 -0.14
9 0.42

> <PUBCHEM_EFFECTIVE_ROTOR_COUNT>
4

> <PUBCHEM_PHARMACOPHORE_FEATURES>
11
1 1 acceptor
1 2 acceptor
1 3 acceptor
1 4 acceptor
1 5 acceptor
1 6 acceptor
5 1 7 8 9 11 rings
6 19 21 22 24 26 27 rings
6 2 10 12 13 14 15 rings
6 3 13 14 19 20 21 rings
6 8 10 11 12 17 18 rings

> <PUBCHEM_HEAVY_ATOM_COUNT>
29

> <PUBCHEM_ATOM_DEF_STEREO_COUNT>
1

> <PUBCHEM_ATOM_UDEF_STEREO_COUNT>
0

> <PUBCHEM_BOND_DEF_STEREO_COUNT>
0

> <PUBCHEM_BOND_UDEF_STEREO_COUNT>
0

> <PUBCHEM_ISOTOPIC_ATOM_COUNT>
0

> <PUBCHEM_COMPONENT_COUNT>
1

> <PUBCHEM_CACTVS_TAUTO_COUNT>
1

> <PUBCHEM_CONFORMER_ID>
0001837600000001

> <PUBCHEM_MMFF94_ENERGY>
112.1322

> <PUBCHEM_FEATURE_SELFOVERLAP>
56.015

> <PUBCHEM_SHAPE_FINGERPRINT>
10 15 18113901572213524721
10411042 1 17834958573588505926
10835480 77 18342452694650412264
10906281 52 18271544046975675037
11315181 36 17561086946867691241
11578080 2 16986853869393476082
12236239 1 17989204850252586911
12838862 33 18338217328256850120
13402501 40 18409729560284668428
13533116 47 18060136510235099370
14117953 113 18130791097519583478
14341114 176 18409733962826847037
14790565 3 18122910824030155329
14849402 71 18342462594508202169
14856354 85 15574721305091546395
15183329 4 18271810098724806129
15196674 1 18410574023875014486
1577012 14 18341890805347827495
16087824 20 18410294666718783053
18335252 114 18340477886220807421
18608769 82 18336833082863942883
19611394 137 17896334674439224241
20832881 197 18411418401723763904
21033648 29 17988068019522107802
21130935 74 18342457053773374331
21133410 171 16974709815475250974
21236236 1 18340768243480166159
21267235 1 18337678520425103070
21279426 13 18409446947242059134
21421861 104 17895738639941641850
21792934 111 18340756049756497496
23559900 14 18342450495363198409
24771293 8 18267293417398023232
3004659 81 18261112951084987366
3178227 256 18335151881860171049
335352 9 18410855443233324583
350125 39 18410011039720363693
3680242 22 18334571313544927578
38695281 34 18201720648208734695
4017518 198 16988568992202368862
4073 2 18187930650687412306
4093350 32 17417817218613900414
4340502 62 16153705419036700624
5104073 3 18338515347711134987
58260988 393 15213009423872161380
59755656 215 18336827498852349253
6086070 43 17131829927945258731
6138700 20 18337391535195554558
6328613 192 18412265051399949953
7226269 152 18202848747365263857

> <PUBCHEM_SHAPE_MULTIPOLES>
561.59
18.88
2.81
0.74
5.07
0.66
0.11
-5.7
1.18
-1.58
0.14
0.53
-0.03
0.3

> <PUBCHEM_SHAPE_SELFOVERLAP>
1261.76

> <PUBCHEM_SHAPE_VOLUME>
296.7

> <PUBCHEM_COORDINATE_TYPE>
2
5
10

$$$$
