15586718
  -OEChem-02172602253D

 51 53  0     1  0  0  0  0  0999 V2000
   -3.3046    1.9096    1.7786 O   0  0  0  0  0  0  0  0  0  0  0  0
   -1.7168    0.4725   -0.1221 C   0  0  2  0  0  0  0  0  0  0  0  0
   -0.9467   -0.8879   -0.3184 C   0  0  2  0  0  0  0  0  0  0  0  0
   -3.2850    0.4039   -0.0760 C   0  0  1  0  0  0  0  0  0  0  0  0
   -1.5106   -1.9088    0.7077 C   0  0  0  0  0  0  0  0  0  0  0  0
   -3.7233   -0.7130    0.9011 C   0  0  0  0  0  0  0  0  0  0  0  0
   -1.1580    1.5336   -1.0839 C   0  0  0  0  0  0  0  0  0  0  0  0
   -3.0303   -2.0461    0.6634 C   0  0  0  0  0  0  0  0  0  0  0  0
    0.5660   -0.6338   -0.1090 C   0  0  0  0  0  0  0  0  0  0  0  0
    0.3017    1.8338   -0.7550 C   0  0  0  0  0  0  0  0  0  0  0  0
   -1.0489   -1.4976   -1.7383 C   0  0  0  0  0  0  0  0  0  0  0  0
   -3.8484    1.7347    0.4923 C   0  0  0  0  0  0  0  0  0  0  0  0
   -3.9558    0.2038   -1.4479 C   0  0  0  0  0  0  0  0  0  0  0  0
    1.1296    0.6356   -0.3652 C   0  0  0  0  0  0  0  0  0  0  0  0
    1.4330   -1.6788    0.2701 C   0  0  0  0  0  0  0  0  0  0  0  0
    2.5140    0.8318   -0.2067 C   0  0  0  0  0  0  0  0  0  0  0  0
    3.3464   -0.2135    0.1823 C   0  0  0  0  0  0  0  0  0  0  0  0
    2.8055   -1.4698    0.4184 C   0  0  0  0  0  0  0  0  0  0  0  0
    4.8111    0.0141    0.3417 C   0  0  0  0  0  0  0  0  0  0  0  0
    5.1313    1.0427    1.4433 C   0  0  0  0  0  0  0  0  0  0  0  0
    5.4896    0.4332   -0.9765 C   0  0  0  0  0  0  0  0  0  0  0  0
   -1.4198    0.8056    0.8860 H   0  0  0  0  0  0  0  0  0  0  0  0
   -1.2146   -1.6113    1.7232 H   0  0  0  0  0  0  0  0  0  0  0  0
   -1.0864   -2.9069    0.5444 H   0  0  0  0  0  0  0  0  0  0  0  0
   -4.8097   -0.8595    0.8441 H   0  0  0  0  0  0  0  0  0  0  0  0
   -3.5142   -0.4300    1.9404 H   0  0  0  0  0  0  0  0  0  0  0  0
   -1.7094    2.4762   -1.0270 H   0  0  0  0  0  0  0  0  0  0  0  0
   -1.2441    1.2027   -2.1240 H   0  0  0  0  0  0  0  0  0  0  0  0
   -3.3506   -2.4791   -0.2898 H   0  0  0  0  0  0  0  0  0  0  0  0
   -3.3458   -2.7551    1.4386 H   0  0  0  0  0  0  0  0  0  0  0  0
    0.3292    2.5404    0.0852 H   0  0  0  0  0  0  0  0  0  0  0  0
    0.7594    2.3356   -1.6163 H   0  0  0  0  0  0  0  0  0  0  0  0
   -0.6552   -0.8309   -2.5122 H   0  0  0  0  0  0  0  0  0  0  0  0
   -0.4625   -2.4234   -1.8081 H   0  0  0  0  0  0  0  0  0  0  0  0
   -2.0640   -1.7709   -2.0188 H   0  0  0  0  0  0  0  0  0  0  0  0
   -4.9397    1.6878    0.5867 H   0  0  0  0  0  0  0  0  0  0  0  0
   -3.6062    2.6006   -0.1292 H   0  0  0  0  0  0  0  0  0  0  0  0
   -3.6106    0.9409   -2.1796 H   0  0  0  0  0  0  0  0  0  0  0  0
   -3.7965   -0.7899   -1.8637 H   0  0  0  0  0  0  0  0  0  0  0  0
   -5.0438    0.3215   -1.3674 H   0  0  0  0  0  0  0  0  0  0  0  0
    1.0579   -2.6831    0.4439 H   0  0  0  0  0  0  0  0  0  0  0  0
    2.9281    1.8210   -0.3918 H   0  0  0  0  0  0  0  0  0  0  0  0
    3.4357   -2.3042    0.7143 H   0  0  0  0  0  0  0  0  0  0  0  0
   -3.6673    2.7378    2.1361 H   0  0  0  0  0  0  0  0  0  0  0  0
    5.2851   -0.9281    0.6493 H   0  0  0  0  0  0  0  0  0  0  0  0
    4.7639    2.0429    1.1893 H   0  0  0  0  0  0  0  0  0  0  0  0
    6.2132    1.1144    1.5985 H   0  0  0  0  0  0  0  0  0  0  0  0
    4.6739    0.7488    2.3946 H   0  0  0  0  0  0  0  0  0  0  0  0
    5.2898   -0.2991   -1.7666 H   0  0  0  0  0  0  0  0  0  0  0  0
    6.5752    0.4986   -0.8454 H   0  0  0  0  0  0  0  0  0  0  0  0
    5.1368    1.4092   -1.3267 H   0  0  0  0  0  0  0  0  0  0  0  0
  1 12  1  0  0  0  0
  1 44  1  0  0  0  0
  2  3  1  0  0  0  0
  2  4  1  0  0  0  0
  2  7  1  0  0  0  0
  2 22  1  0  0  0  0
  3  5  1  0  0  0  0
  3  9  1  0  0  0  0
  3 11  1  0  0  0  0
  4  6  1  0  0  0  0
  4 12  1  0  0  0  0
  4 13  1  0  0  0  0
  5  8  1  0  0  0  0
  5 23  1  0  0  0  0
  5 24  1  0  0  0  0
  6  8  1  0  0  0  0
  6 25  1  0  0  0  0
  6 26  1  0  0  0  0
  7 10  1  0  0  0  0
  7 27  1  0  0  0  0
  7 28  1  0  0  0  0
  8 29  1  0  0  0  0
  8 30  1  0  0  0  0
  9 14  2  0  0  0  0
  9 15  1  0  0  0  0
 10 14  1  0  0  0  0
 10 31  1  0  0  0  0
 10 32  1  0  0  0  0
 11 33  1  0  0  0  0
 11 34  1  0  0  0  0
 11 35  1  0  0  0  0
 12 36  1  0  0  0  0
 12 37  1  0  0  0  0
 13 38  1  0  0  0  0
 13 39  1  0  0  0  0
 13 40  1  0  0  0  0
 14 16  1  0  0  0  0
 15 18  2  0  0  0  0
 15 41  1  0  0  0  0
 16 17  2  0  0  0  0
 16 42  1  0  0  0  0
 17 18  1  0  0  0  0
 17 19  1  0  0  0  0
 18 43  1  0  0  0  0
 19 20  1  0  0  0  0
 19 21  1  0  0  0  0
 19 45  1  0  0  0  0
 20 46  1  0  0  0  0
 20 47  1  0  0  0  0
 20 48  1  0  0  0  0
 21 49  1  0  0  0  0
 21 50  1  0  0  0  0
 21 51  1  0  0  0  0
M  END
> <PUBCHEM_COMPOUND_CID>
15586718

> <PUBCHEM_CONFORMER_RMSD>
0.6

> <PUBCHEM_CONFORMER_DIVERSEORDER>
1
2
4
3

> <PUBCHEM_MMFF94_PARTIAL_CHARGES>
15
1 -0.68
10 0.14
12 0.28
14 -0.14
15 -0.15
16 -0.15
17 -0.14
18 -0.15
19 0.14
3 0.14
41 0.15
42 0.15
43 0.15
44 0.4
9 -0.14

> <PUBCHEM_EFFECTIVE_ROTOR_COUNT>
3.2

> <PUBCHEM_PHARMACOPHORE_FEATURES>
6
1 1 acceptor
1 1 donor
3 19 20 21 hydrophobe
6 2 3 4 5 6 8 rings
6 2 3 7 9 10 14 rings
6 9 14 15 16 17 18 rings

> <PUBCHEM_HEAVY_ATOM_COUNT>
21

> <PUBCHEM_ATOM_DEF_STEREO_COUNT>
3

> <PUBCHEM_ATOM_UDEF_STEREO_COUNT>
0

> <PUBCHEM_BOND_DEF_STEREO_COUNT>
0

> <PUBCHEM_BOND_UDEF_STEREO_COUNT>
0

> <PUBCHEM_ISOTOPIC_ATOM_COUNT>
0

> <PUBCHEM_COMPONENT_COUNT>
1

> <PUBCHEM_CACTVS_TAUTO_COUNT>
1

> <PUBCHEM_CONFORMER_ID>
00EDD59E00000001

> <PUBCHEM_MMFF94_ENERGY>
76.8108

> <PUBCHEM_FEATURE_SELFOVERLAP>
30.482

> <PUBCHEM_SHAPE_FINGERPRINT>
10366900 7 18343291574413300657
10906281 52 18337117748547771429
11089746 13 17917419922508818832
11132069 177 18187364315814204822
11315181 36 18342172293673650568
12011746 2 18335697239411101095
12236239 1 18201994405123211805
12251169 10 18335710446488289955
12390115 104 18341344370087127648
12403814 3 16515399672750603647
12507557 5 18261109703403831321
12553582 1 18187370913021498620
12633257 1 17967256403006842744
12892183 10 18412832369334858203
13140716 1 18261959672809889673
13214271 11 18335134319132443782
13221675 6 18334572434647189054
13224815 77 18259984877433777222
13675066 3 18343022228988658074
14341114 328 17821730542066197928
14787075 74 17749114438902260000
14790565 3 18189347917070877164
15163728 17 15768666248205518377
15196674 1 18333731290898212234
15209289 33 17676206909280351530
15209294 21 18272374122557623985
15375358 24 18334288760573480166
15788980 27 16128661851322933164
1601671 61 18335426768467812588
16945 1 18187934923973812077
17804303 29 18336269036744204084
17844677 252 17489592272913715712
17980427 23 18272093799165158477
1813 80 16443354160687872406
19784866 170 18333736792946360750
200 152 18342728655205320895
21033648 29 17632569461716420298
21267235 1 18260840339950240747
21421861 104 17459461144570450482
21637258 2 14418147244195018113
23402539 116 10303813155380747624
23557571 272 18339938090145967318
23559900 14 18263637519148772028
25147074 1 18042986443623379813
296302 2 18410575054608883343
34934 24 18187355506852202391
350125 39 18189343518781077385
5104073 3 18408319956698405962
633830 44 18199469853090037063
90127 26 17775007899282314800

> <PUBCHEM_SHAPE_MULTIPOLES>
426.3
9.76
2.11
1.33
9.56
0.2
0.03
-2.17
-1.91
-1.39
-0.26
-0.49
-0.21
-0.12

> <PUBCHEM_SHAPE_SELFOVERLAP>
898.686

> <PUBCHEM_SHAPE_VOLUME>
239.5

> <PUBCHEM_COORDINATE_TYPE>
2
5
10

$$$$
