3083803
  -OEChem-02172602363D

 49 53  0     0  0  0  0  0  0999 V2000
   -5.4698    0.9401   -0.0778 O   0  0  0  0  0  0  0  0  0  0  0  0
   -1.1805   -1.2600    0.1193 O   0  0  0  0  0  0  0  0  0  0  0  0
    2.1964   -2.5705   -0.2125 O   0  0  0  0  0  0  0  0  0  0  0  0
    0.6780    2.2601   -0.6812 O   0  0  0  0  0  0  0  0  0  0  0  0
    5.4209    1.8657    0.3050 O   0  0  0  0  0  0  0  0  0  0  0  0
    6.5202   -0.6705    0.0468 O   0  0  0  0  0  0  0  0  0  0  0  0
   -6.1825   -0.2928    0.1481 C   0  0  0  0  0  0  0  0  0  0  0  0
   -3.3262   -0.2243    0.0340 C   0  0  0  0  0  0  0  0  0  0  0  0
   -1.9257   -0.1187   -0.0400 C   0  0  0  0  0  0  0  0  0  0  0  0
    0.9026   -0.0393   -0.0743 C   0  0  0  0  0  0  0  0  0  0  0  0
   -1.3256    1.1177   -0.2783 C   0  0  0  0  0  0  0  0  0  0  0  0
   -4.1040    0.9264   -0.1322 C   0  0  0  0  0  0  0  0  0  0  0  0
    0.1967   -1.1657    0.1216 C   0  0  0  0  0  0  0  0  0  0  0  0
   -5.3273   -1.5212    0.3318 C   0  0  0  0  0  0  0  0  0  0  0  0
    2.3704   -0.1534   -0.0011 C   0  0  0  0  0  0  0  0  0  0  0  0
    0.1432    1.2065   -0.3632 C   0  0  0  0  0  0  0  0  0  0  0  0
   -3.9942   -1.4961    0.2802 C   0  0  0  0  0  0  0  0  0  0  0  0
    0.8841   -2.4794    0.3558 C   0  0  0  0  0  0  0  0  0  0  0  0
   -7.0316   -0.0750    1.4062 C   0  0  0  0  0  0  0  0  0  0  0  0
   -7.0991   -0.4911   -1.0652 C   0  0  0  0  0  0  0  0  0  0  0  0
   -2.1091    2.2613   -0.4449 C   0  0  0  0  0  0  0  0  0  0  0  0
   -3.4967    2.1626   -0.3699 C   0  0  0  0  0  0  0  0  0  0  0  0
    2.9485   -1.4307   -0.0874 C   0  0  0  0  0  0  0  0  0  0  0  0
    3.2284    0.9451    0.1450 C   0  0  0  0  0  0  0  0  0  0  0  0
    4.3356   -1.6023   -0.0902 C   0  0  0  0  0  0  0  0  0  0  0  0
    4.6167    0.7742    0.1639 C   0  0  0  0  0  0  0  0  0  0  0  0
    5.1700   -0.4966    0.0376 C   0  0  0  0  0  0  0  0  0  0  0  0
    5.7704    2.2445    1.6345 C   0  0  0  0  0  0  0  0  0  0  0  0
    7.1901   -0.6166   -1.2116 C   0  0  0  0  0  0  0  0  0  0  0  0
   -5.8260   -2.4702    0.5137 H   0  0  0  0  0  0  0  0  0  0  0  0
   -3.4169   -2.4024    0.4170 H   0  0  0  0  0  0  0  0  0  0  0  0
    0.9468   -2.6898    1.4302 H   0  0  0  0  0  0  0  0  0  0  0  0
    0.2985   -3.2860   -0.0996 H   0  0  0  0  0  0  0  0  0  0  0  0
   -6.3949    0.1130    2.2792 H   0  0  0  0  0  0  0  0  0  0  0  0
   -7.6723    0.8080    1.2969 H   0  0  0  0  0  0  0  0  0  0  0  0
   -7.6700   -0.9380    1.6258 H   0  0  0  0  0  0  0  0  0  0  0  0
   -7.7410    0.3846   -1.2169 H   0  0  0  0  0  0  0  0  0  0  0  0
   -6.5113   -0.6044   -1.9841 H   0  0  0  0  0  0  0  0  0  0  0  0
   -7.7402   -1.3729   -0.9563 H   0  0  0  0  0  0  0  0  0  0  0  0
   -1.6610    3.2331   -0.6315 H   0  0  0  0  0  0  0  0  0  0  0  0
   -4.1024    3.0561   -0.4990 H   0  0  0  0  0  0  0  0  0  0  0  0
    2.8396    1.9527    0.2575 H   0  0  0  0  0  0  0  0  0  0  0  0
    4.7618   -2.5986   -0.1797 H   0  0  0  0  0  0  0  0  0  0  0  0
    6.3171    1.4386    2.1341 H   0  0  0  0  0  0  0  0  0  0  0  0
    4.8744    2.5026    2.2078 H   0  0  0  0  0  0  0  0  0  0  0  0
    6.4170    3.1246    1.5812 H   0  0  0  0  0  0  0  0  0  0  0  0
    7.0466    0.3609   -1.6828 H   0  0  0  0  0  0  0  0  0  0  0  0
    6.8276   -1.4099   -1.8730 H   0  0  0  0  0  0  0  0  0  0  0  0
    8.2590   -0.7673   -1.0373 H   0  0  0  0  0  0  0  0  0  0  0  0
  1  7  1  0  0  0  0
  1 12  1  0  0  0  0
  2  9  1  0  0  0  0
  2 13  1  0  0  0  0
  3 18  1  0  0  0  0
  3 23  1  0  0  0  0
  4 16  2  0  0  0  0
  5 26  1  0  0  0  0
  5 28  1  0  0  0  0
  6 27  1  0  0  0  0
  6 29  1  0  0  0  0
  7 14  1  0  0  0  0
  7 19  1  0  0  0  0
  7 20  1  0  0  0  0
  8  9  1  0  0  0  0
  8 12  2  0  0  0  0
  8 17  1  0  0  0  0
  9 11  2  0  0  0  0
 10 13  2  0  0  0  0
 10 15  1  0  0  0  0
 10 16  1  0  0  0  0
 11 16  1  0  0  0  0
 11 21  1  0  0  0  0
 12 22  1  0  0  0  0
 13 18  1  0  0  0  0
 14 17  2  0  0  0  0
 14 30  1  0  0  0  0
 15 23  1  0  0  0  0
 15 24  2  0  0  0  0
 17 31  1  0  0  0  0
 18 32  1  0  0  0  0
 18 33  1  0  0  0  0
 19 34  1  0  0  0  0
 19 35  1  0  0  0  0
 19 36  1  0  0  0  0
 20 37  1  0  0  0  0
 20 38  1  0  0  0  0
 20 39  1  0  0  0  0
 21 22  2  0  0  0  0
 21 40  1  0  0  0  0
 22 41  1  0  0  0  0
 23 25  2  0  0  0  0
 24 26  1  0  0  0  0
 24 42  1  0  0  0  0
 25 27  1  0  0  0  0
 25 43  1  0  0  0  0
 26 27  2  0  0  0  0
 28 44  1  0  0  0  0
 28 45  1  0  0  0  0
 28 46  1  0  0  0  0
 29 47  1  0  0  0  0
 29 48  1  0  0  0  0
 29 49  1  0  0  0  0
M  END
> <PUBCHEM_COMPOUND_CID>
3083803

> <PUBCHEM_CONFORMER_RMSD>
0.8

> <PUBCHEM_CONFORMER_DIVERSEORDER>
1
2

> <PUBCHEM_MMFF94_PARTIAL_CHARGES>
33
1 -0.36
10 -0.01
11 0.09
12 0.08
13 -0.06
14 -0.29
15 0.03
16 0.47
17 -0.18
18 0.42
2 -0.16
21 -0.15
22 -0.15
23 0.08
24 -0.15
25 -0.15
26 0.08
27 0.08
28 0.28
29 0.28
3 -0.36
30 0.15
31 0.15
4 -0.57
40 0.15
41 0.15
42 0.15
43 0.15
5 -0.36
6 -0.36
7 0.42
8 0.03
9 0.08

> <PUBCHEM_EFFECTIVE_ROTOR_COUNT>
2.8

> <PUBCHEM_PHARMACOPHORE_FEATURES>
12
1 1 acceptor
1 2 acceptor
1 3 acceptor
1 4 acceptor
1 5 acceptor
1 6 acceptor
3 7 19 20 hydrophobe
6 1 7 8 12 14 17 rings
6 15 23 24 25 26 27 rings
6 2 9 10 11 13 16 rings
6 3 10 13 15 18 23 rings
6 8 9 11 12 21 22 rings

> <PUBCHEM_HEAVY_ATOM_COUNT>
29

> <PUBCHEM_ATOM_DEF_STEREO_COUNT>
0

> <PUBCHEM_ATOM_UDEF_STEREO_COUNT>
0

> <PUBCHEM_BOND_DEF_STEREO_COUNT>
0

> <PUBCHEM_BOND_UDEF_STEREO_COUNT>
0

> <PUBCHEM_ISOTOPIC_ATOM_COUNT>
0

> <PUBCHEM_COMPONENT_COUNT>
1

> <PUBCHEM_CACTVS_TAUTO_COUNT>
1

> <PUBCHEM_CONFORMER_ID>
002F0E1B00000001

> <PUBCHEM_MMFF94_ENERGY>
119.7724

> <PUBCHEM_FEATURE_SELFOVERLAP>
61.016

> <PUBCHEM_SHAPE_FINGERPRINT>
10 15 18335412517893243696
10050765 1 18120936109768044759
10835480 77 18337099086967929461
10906281 52 18187947100206180409
11524674 6 16917067767758264439
11578080 2 16662314097678069423
11963148 33 18261387871098527851
12107183 9 17545318579956774939
12166972 35 18408045113251874468
12236239 1 17846780719703023471
12403259 415 18410848850711920740
12516196 113 18343580750677998409
12596602 18 17632581560913540899
12730499 353 18413672396761856194
12925494 130 18268703905626828121
13140716 1 18047193230824460627
13402501 40 18408603668957191314
14341114 176 18410296904395828225
14394314 77 18340211796128648673
1454969 45 18411697695020910983
14840074 17 18201433697221970711
14849402 71 17987800851251200865
14933364 13 18413392042249175488
15183329 4 18408039598133564715
15196674 1 18408884005714794884
16087824 20 18262516963400123077
17844677 252 18341900670998781432
1813 80 17023188201685264069
18608769 82 18410293631815455882
18681886 176 18336262422367824872
21130935 74 18343023298425556707
21236236 1 18410575042494484993
21267235 1 18408329873350350823
21521721 280 18201157740834967640
21792934 111 18337095800779475096
221357 26 18343585123228778336
22149856 69 18337971029895503849
23559900 14 18336259163268823633
24771293 8 18340482391156554596
2747138 104 18260277373238723073
3004659 81 17821730554756317324
335352 9 18334857208986958421
3383291 50 17895201047538725907
34797466 226 17632581556465748476
350125 39 18409731742101680836
3545911 37 18409168796464345326
3633792 109 18410003314070866725
4073 2 18114467858755447467
4093350 32 16989127561388873300
4325135 7 18261115162001251367
4340502 62 18413385458475754392
4461854 278 18128551546969093247
5104073 3 18337105653276047600
59755656 215 18408325462693744750

> <PUBCHEM_SHAPE_MULTIPOLES>
561.59
18.48
2.45
0.92
1.61
0.27
-0.14
-0.45
-0.91
-1.22
-0.12
-0.1
0.21
1.37

> <PUBCHEM_SHAPE_SELFOVERLAP>
1261.724

> <PUBCHEM_SHAPE_VOLUME>
296.2

> <PUBCHEM_COORDINATE_TYPE>
2
5
10

$$$$
