398788
  -OEChem-02172602293D

 49 52  0     1  0  0  0  0  0999 V2000
    0.3649    2.7660   -0.0276 O   0  0  0  0  0  0  0  0  0  0  0  0
    2.9715    3.2182   -0.0781 O   0  0  0  0  0  0  0  0  0  0  0  0
   -4.0859    1.6145   -0.0382 O   0  0  0  0  0  0  0  0  0  0  0  0
   -4.8151   -1.0638   -0.0360 O   0  0  0  0  0  0  0  0  0  0  0  0
    2.1370   -3.1232    0.0885 N   0  0  1  0  0  0  0  0  0  0  0  0
    1.6069   -0.7358    0.0166 C   0  0  0  0  0  0  0  0  0  0  0  0
    1.1896   -2.0905    0.0443 C   0  0  0  0  0  0  0  0  0  0  0  0
    2.9884   -0.4261   -0.0114 C   0  0  0  0  0  0  0  0  0  0  0  0
    4.0009   -1.5410   -0.0698 C   0  0  0  0  0  0  0  0  0  0  0  0
    3.4553   -2.7833    0.6170 C   0  0  0  0  0  0  0  0  0  0  0  0
    0.6528    0.3232   -0.0002 C   0  0  0  0  0  0  0  0  0  0  0  0
   -0.7494    0.0161   -0.0039 C   0  0  0  0  0  0  0  0  0  0  0  0
   -1.1520   -1.3384   -0.0018 C   0  0  0  0  0  0  0  0  0  0  0  0
   -0.1889   -2.3549    0.0164 C   0  0  0  0  0  0  0  0  0  0  0  0
    1.1527    1.6492   -0.0227 C   0  0  0  0  0  0  0  0  0  0  0  0
    3.4350    0.8976   -0.0527 C   0  0  0  0  0  0  0  0  0  0  0  0
    2.5177    1.9330   -0.0479 C   0  0  0  0  0  0  0  0  0  0  0  0
    1.7464   -4.5246    0.0767 C   0  0  0  0  0  0  0  0  0  0  0  0
   -1.7850    0.9871   -0.0162 C   0  0  0  0  0  0  0  0  0  0  0  0
   -2.5167   -1.6792   -0.0133 C   0  0  0  0  0  0  0  0  0  0  0  0
   -3.1375    0.6364   -0.0265 C   0  0  0  0  0  0  0  0  0  0  0  0
   -3.5040   -0.6992   -0.0257 C   0  0  0  0  0  0  0  0  0  0  0  0
    0.5255    3.6719    1.0596 C   0  0  0  0  0  0  0  0  0  0  0  0
    3.1683    3.8050   -1.3625 C   0  0  0  0  0  0  0  0  0  0  0  0
   -4.5486    2.0835    1.2266 C   0  0  0  0  0  0  0  0  0  0  0  0
   -5.4297   -1.2416   -1.3114 C   0  0  0  0  0  0  0  0  0  0  0  0
    4.2222   -1.7537   -1.1230 H   0  0  0  0  0  0  0  0  0  0  0  0
    4.9352   -1.2420    0.4193 H   0  0  0  0  0  0  0  0  0  0  0  0
    4.1617   -3.6080    0.4650 H   0  0  0  0  0  0  0  0  0  0  0  0
    3.3796   -2.6232    1.7008 H   0  0  0  0  0  0  0  0  0  0  0  0
   -0.5399   -3.3861    0.0284 H   0  0  0  0  0  0  0  0  0  0  0  0
    4.4997    1.1147   -0.0883 H   0  0  0  0  0  0  0  0  0  0  0  0
    2.6229   -5.1769   -0.0050 H   0  0  0  0  0  0  0  0  0  0  0  0
    1.1101   -4.7513   -0.7856 H   0  0  0  0  0  0  0  0  0  0  0  0
    1.2197   -4.7910    0.9993 H   0  0  0  0  0  0  0  0  0  0  0  0
   -1.6079    2.0521   -0.0270 H   0  0  0  0  0  0  0  0  0  0  0  0
   -2.8183   -2.7260   -0.0107 H   0  0  0  0  0  0  0  0  0  0  0  0
    1.0503    3.2309    1.9149 H   0  0  0  0  0  0  0  0  0  0  0  0
   -0.4729    3.9647    1.3997 H   0  0  0  0  0  0  0  0  0  0  0  0
    1.0349    4.5787    0.7213 H   0  0  0  0  0  0  0  0  0  0  0  0
    2.2351    3.8104   -1.9346 H   0  0  0  0  0  0  0  0  0  0  0  0
    3.9437    3.2648   -1.9148 H   0  0  0  0  0  0  0  0  0  0  0  0
    3.4963    4.8382   -1.2201 H   0  0  0  0  0  0  0  0  0  0  0  0
   -5.0067    1.2687    1.7960 H   0  0  0  0  0  0  0  0  0  0  0  0
   -5.3037    2.8546    1.0507 H   0  0  0  0  0  0  0  0  0  0  0  0
   -3.7246    2.5241    1.7968 H   0  0  0  0  0  0  0  0  0  0  0  0
   -5.4032   -0.3097   -1.8850 H   0  0  0  0  0  0  0  0  0  0  0  0
   -6.4737   -1.5247   -1.1519 H   0  0  0  0  0  0  0  0  0  0  0  0
   -4.9310   -2.0408   -1.8689 H   0  0  0  0  0  0  0  0  0  0  0  0
  1 15  1  0  0  0  0
  1 23  1  0  0  0  0
  2 17  1  0  0  0  0
  2 24  1  0  0  0  0
  3 21  1  0  0  0  0
  3 25  1  0  0  0  0
  4 22  1  0  0  0  0
  4 26  1  0  0  0  0
  5  7  1  0  0  0  0
  5 10  1  0  0  0  0
  5 18  1  0  0  0  0
  6  7  2  0  0  0  0
  6  8  1  0  0  0  0
  6 11  1  0  0  0  0
  7 14  1  0  0  0  0
  8  9  1  0  0  0  0
  8 16  2  0  0  0  0
  9 10  1  0  0  0  0
  9 27  1  0  0  0  0
  9 28  1  0  0  0  0
 10 29  1  0  0  0  0
 10 30  1  0  0  0  0
 11 12  2  0  0  0  0
 11 15  1  0  0  0  0
 12 13  1  0  0  0  0
 12 19  1  0  0  0  0
 13 14  2  0  0  0  0
 13 20  1  0  0  0  0
 14 31  1  0  0  0  0
 15 17  2  0  0  0  0
 16 17  1  0  0  0  0
 16 32  1  0  0  0  0
 18 33  1  0  0  0  0
 18 34  1  0  0  0  0
 18 35  1  0  0  0  0
 19 21  2  0  0  0  0
 19 36  1  0  0  0  0
 20 22  2  0  0  0  0
 20 37  1  0  0  0  0
 21 22  1  0  0  0  0
 23 38  1  0  0  0  0
 23 39  1  0  0  0  0
 23 40  1  0  0  0  0
 24 41  1  0  0  0  0
 24 42  1  0  0  0  0
 24 43  1  0  0  0  0
 25 44  1  0  0  0  0
 25 45  1  0  0  0  0
 25 46  1  0  0  0  0
 26 47  1  0  0  0  0
 26 48  1  0  0  0  0
 26 49  1  0  0  0  0
M  END
> <PUBCHEM_COMPOUND_CID>
398788

> <PUBCHEM_CONFORMER_RMSD>
0.8

> <PUBCHEM_CONFORMER_DIVERSEORDER>
2
1

> <PUBCHEM_MMFF94_PARTIAL_CHARGES>
26
1 -0.36
10 0.37
14 -0.15
15 0.08
16 -0.15
17 0.08
18 0.37
19 -0.15
2 -0.36
20 -0.15
21 0.08
22 0.08
23 0.28
24 0.28
25 0.28
26 0.28
3 -0.36
31 0.15
32 0.15
36 0.15
37 0.15
4 -0.36
5 -0.84
7 0.1
8 -0.14
9 0.14

> <PUBCHEM_EFFECTIVE_ROTOR_COUNT>
4.6

> <PUBCHEM_PHARMACOPHORE_FEATURES>
9
1 1 acceptor
1 2 acceptor
1 3 acceptor
1 4 acceptor
1 5 cation
6 12 13 19 20 21 22 rings
6 5 6 7 8 9 10 rings
6 6 7 11 12 13 14 rings
6 6 8 11 15 16 17 rings

> <PUBCHEM_HEAVY_ATOM_COUNT>
26

> <PUBCHEM_ATOM_DEF_STEREO_COUNT>
0

> <PUBCHEM_ATOM_UDEF_STEREO_COUNT>
0

> <PUBCHEM_BOND_DEF_STEREO_COUNT>
0

> <PUBCHEM_BOND_UDEF_STEREO_COUNT>
0

> <PUBCHEM_ISOTOPIC_ATOM_COUNT>
0

> <PUBCHEM_COMPONENT_COUNT>
1

> <PUBCHEM_CACTVS_TAUTO_COUNT>
1

> <PUBCHEM_CONFORMER_ID>
000615C400000002

> <PUBCHEM_MMFF94_ENERGY>
143.1677

> <PUBCHEM_FEATURE_SELFOVERLAP>
45.782

> <PUBCHEM_SHAPE_FINGERPRINT>
10319926 262 16896772694877401370
10411042 1 17761213215346089266
10693767 8 18202284702058487278
10906281 52 18263660489177053754
10967382 1 18410574028370344354
1100329 8 18267026046797818833
11578080 2 17486742265259021057
12107183 9 17909554956916565089
12173636 292 17978228592933923156
12403259 226 18335693932344461173
12403260 363 18411973681034685167
12553582 1 18194118512912636302
12730499 353 18192153909209535371
12788726 201 17396144534587307850
13004483 165 17688304590775831067
13009979 54 17845096164530734643
13140716 1 18411698794611380608
13533116 47 18341327899008548391
13540713 5 18272371958648084329
138480 1 18337953385700138374
14790565 3 18265060304844624740
14844126 61 16965193099300402314
14866123 147 16320619736233967115
15042514 8 17328866491867378234
15081414 286 18195254308165360778
15196674 1 18411699863588738539
15442244 35 18339924809916794113
15475509 8 17483424939914429798
15664445 248 18198077901951041238
15927050 60 18123470746770182806
1601671 61 18339925888096354426
16087824 20 17545042602454787389
16945 1 18267024947286366146
17492 89 18412543181109307623
18681886 176 18343012294682473002
18785283 64 18261685817168179936
19591789 44 18266181810645878446
19930381 70 18410007758370169587
20642791 178 18334864956665153616
20691752 17 17894912893243842395
20739085 24 17764330352385241753
21267235 1 18411706460812213591
21421861 104 17899979326992854378
221490 88 18408046216957989515
22149856 69 18264784332316989899
2255824 54 18409168831251559470
2334 1 18267024041042680090
23366157 5 18187085052714042050
23559900 14 18411410709300316515
25147074 1 18202847639500688169
2748010 2 16395498269603053508
3091708 16 9504507801718147906
335352 9 18266741268653602007
350125 39 18337674233936705541
352729 6 17616531104692966190
394222 165 17896597474350200592
4409770 3 17108181305210775414
474 4 18263360446354634558
5104073 3 18411136901114679483
5312544 6 18265891535170538735
6443956 14 18337112250767806806
7364860 26 18410571820651698162
84936 182 18270962474176375544
9709674 26 18409733941552886363
9981440 41 18120933064441066849

> <PUBCHEM_SHAPE_MULTIPOLES>
506.61
8.57
5.14
0.87
9.95
0.56
0.06
-0.27
0.91
-5.17
-0.11
0.34
0.44
-1.75

> <PUBCHEM_SHAPE_SELFOVERLAP>
1120.144

> <PUBCHEM_SHAPE_VOLUME>
275.8

> <PUBCHEM_COORDINATE_TYPE>
2
5
10

$$$$
