404548
  -OEChem-02172602583D

 34 36  0     1  0  0  0  0  0999 V2000
   -1.4787    1.4744   -0.1499 O   0  0  0  0  0  0  0  0  0  0  0  0
   -3.7046    2.1025   -0.2085 O   0  0  0  0  0  0  0  0  0  0  0  0
    3.8441    1.8245   -0.3750 O   0  0  0  0  0  0  0  0  0  0  0  0
    1.1501   -1.3303    0.1663 C   0  0  2  0  0  0  0  0  0  0  0  0
    0.6187    0.0954   -0.2220 C   0  0  1  0  0  0  0  0  0  0  0  0
   -0.8374    0.2522    0.2395 C   0  0  2  0  0  0  0  0  0  0  0  0
   -1.6931   -0.8058   -0.4373 C   0  0  1  0  0  0  0  0  0  0  0  0
    0.1918   -2.4261   -0.3870 C   0  0  0  0  0  0  0  0  0  0  0  0
   -1.2840   -2.2032   -0.0076 C   0  0  0  0  0  0  0  0  0  0  0  0
    1.6179    1.1438    0.2116 C   0  0  0  0  0  0  0  0  0  0  0  0
    1.2953   -1.5281    1.6955 C   0  0  0  0  0  0  0  0  0  0  0  0
    2.5364   -1.4931   -0.4336 C   0  0  0  0  0  0  0  0  0  0  0  0
   -3.0215   -0.2246   -0.1301 C   0  0  0  0  0  0  0  0  0  0  0  0
   -2.8364    1.2514   -0.1558 C   0  0  0  0  0  0  0  0  0  0  0  0
    3.0174    0.9241   -0.2778 C   0  0  0  0  0  0  0  0  0  0  0  0
    3.3741   -0.4703   -0.6563 C   0  0  0  0  0  0  0  0  0  0  0  0
    1.3935    2.2246    0.9710 C   0  0  0  0  0  0  0  0  0  0  0  0
   -4.1834   -0.8114    0.1568 C   0  0  0  0  0  0  0  0  0  0  0  0
    0.5977    0.1732   -1.3222 H   0  0  0  0  0  0  0  0  0  0  0  0
   -0.8923    0.1982    1.3361 H   0  0  0  0  0  0  0  0  0  0  0  0
   -1.5774   -0.7381   -1.5305 H   0  0  0  0  0  0  0  0  0  0  0  0
    0.5027   -3.4195   -0.0383 H   0  0  0  0  0  0  0  0  0  0  0  0
    0.2655   -2.4523   -1.4832 H   0  0  0  0  0  0  0  0  0  0  0  0
   -1.9053   -2.9531   -0.5109 H   0  0  0  0  0  0  0  0  0  0  0  0
   -1.4307   -2.3434    1.0693 H   0  0  0  0  0  0  0  0  0  0  0  0
    1.6774   -2.5307    1.9249 H   0  0  0  0  0  0  0  0  0  0  0  0
    1.9950   -0.8121    2.1413 H   0  0  0  0  0  0  0  0  0  0  0  0
    0.3435   -1.4208    2.2233 H   0  0  0  0  0  0  0  0  0  0  0  0
    2.8736   -2.4990   -0.6721 H   0  0  0  0  0  0  0  0  0  0  0  0
    4.3618   -0.6387   -1.0708 H   0  0  0  0  0  0  0  0  0  0  0  0
    0.4116    2.4463    1.3725 H   0  0  0  0  0  0  0  0  0  0  0  0
    2.1846    2.9200    1.2329 H   0  0  0  0  0  0  0  0  0  0  0  0
   -4.2711   -1.8923    0.1780 H   0  0  0  0  0  0  0  0  0  0  0  0
   -5.0736   -0.2320    0.3766 H   0  0  0  0  0  0  0  0  0  0  0  0
  1  6  1  0  0  0  0
  1 14  1  0  0  0  0
  2 14  2  0  0  0  0
  3 15  2  0  0  0  0
  4  5  1  0  0  0  0
  4  8  1  0  0  0  0
  4 11  1  0  0  0  0
  4 12  1  0  0  0  0
  5  6  1  0  0  0  0
  5 10  1  0  0  0  0
  5 19  1  0  0  0  0
  6  7  1  0  0  0  0
  6 20  1  0  0  0  0
  7  9  1  0  0  0  0
  7 13  1  0  0  0  0
  7 21  1  0  0  0  0
  8  9  1  0  0  0  0
  8 22  1  0  0  0  0
  8 23  1  0  0  0  0
  9 24  1  0  0  0  0
  9 25  1  0  0  0  0
 10 15  1  0  0  0  0
 10 17  2  0  0  0  0
 11 26  1  0  0  0  0
 11 27  1  0  0  0  0
 11 28  1  0  0  0  0
 12 16  2  0  0  0  0
 12 29  1  0  0  0  0
 13 14  1  0  0  0  0
 13 18  2  0  0  0  0
 15 16  1  0  0  0  0
 16 30  1  0  0  0  0
 17 31  1  0  0  0  0
 17 32  1  0  0  0  0
 18 33  1  0  0  0  0
 18 34  1  0  0  0  0
M  END
> <PUBCHEM_COMPOUND_CID>
404548

> <PUBCHEM_CONFORMER_RMSD>
0.6

> <PUBCHEM_CONFORMER_DIVERSEORDER>
1

> <PUBCHEM_MMFF94_PARTIAL_CHARGES>
21
1 -0.43
10 -0.12
12 -0.29
13 -0.12
14 0.71
15 0.54
16 -0.14
17 -0.3
18 -0.3
2 -0.57
29 0.15
3 -0.57
30 0.15
31 0.15
32 0.15
33 0.15
34 0.15
4 0.14
5 0.14
6 0.28
7 0.14

> <PUBCHEM_EFFECTIVE_ROTOR_COUNT>
0.6

> <PUBCHEM_PHARMACOPHORE_FEATURES>
5
1 2 acceptor
1 3 acceptor
5 1 6 7 13 14 rings
6 4 5 10 12 15 16 rings
6 4 5 6 7 8 9 rings

> <PUBCHEM_HEAVY_ATOM_COUNT>
18

> <PUBCHEM_ATOM_DEF_STEREO_COUNT>
4

> <PUBCHEM_ATOM_UDEF_STEREO_COUNT>
0

> <PUBCHEM_BOND_DEF_STEREO_COUNT>
0

> <PUBCHEM_BOND_UDEF_STEREO_COUNT>
0

> <PUBCHEM_ISOTOPIC_ATOM_COUNT>
0

> <PUBCHEM_COMPONENT_COUNT>
1

> <PUBCHEM_CACTVS_TAUTO_COUNT>
1

> <PUBCHEM_CONFORMER_ID>
00062C4400000001

> <PUBCHEM_MMFF94_ENERGY>
52.6521

> <PUBCHEM_FEATURE_SELFOVERLAP>
25.464

> <PUBCHEM_SHAPE_FINGERPRINT>
10411042 1 16465302286112204079
10498660 4 18260825977933070213
10608611 8 18411418423082789477
10863032 1 18409169883048951207
10948715 1 18335704970262634190
10967382 1 18412263973246626860
10980938 120 18410855443043303234
12644460 14 18118413838952893609
13140716 1 18267015064281671361
13221675 6 18412262869598547143
14251745 187 18267584796141355760
14289901 80 15864073143916140191
14787075 74 17608380365072734979
15196674 1 18411139121243265245
15536298 74 18342739611249920990
15775835 57 18409169943294407924
16945 1 18197492042219731374
1813 80 17098037362053829138
18186145 218 18200886088316652124
19591789 44 18411704296211766079
20233049 118 18337953377036259988
20510252 161 18343305877129292929
20645477 70 18339636751055996759
21267235 1 18411147925979391790
21501502 16 18336820897403050075
21524375 3 18335699481183815962
221490 88 18410584958862016382
22802520 49 18126571351668348906
22854114 111 18187645786532871414
2334 1 18411131433552602533
23419403 2 14950066015589073254
23558518 356 17902506326703875568
23559900 14 18272657870627030060
238 59 17541059149204702493
25 1 18337955580053906423
2748010 2 18411697720452811957
2871803 45 18336259128724098719
335352 9 18123190108399166814
474 4 17676495002912474068
5104073 3 18410013212809811793
53812653 166 18341612689204178416
5939293 188 18340760430101035992
69090 78 18271526506340093039
7097593 13 17463111462787135915
7364860 26 18341048506379138118
7832392 63 18341890788236406646
81228 2 17474657833642631875
9709674 26 18341337772410868662

> <PUBCHEM_SHAPE_MULTIPOLES>
352.82
6.24
2.6
0.91
2.38
0.05
-0.31
2.06
0.93
-0.19
-0.18
-0.41
-0.18
0.11

> <PUBCHEM_SHAPE_SELFOVERLAP>
766.878

> <PUBCHEM_SHAPE_VOLUME>
191.1

> <PUBCHEM_COORDINATE_TYPE>
2
5
10

$$$$
