129646339
  -OEChem-02172602303D

 42 44  0     1  0  0  0  0  0999 V2000
   -0.5119    0.6869    0.2041 O   0  0  0  0  0  0  0  0  0  0  0  0
    0.7709   -0.2027   -1.4890 O   0  0  0  0  0  0  0  0  0  0  0  0
    1.1053    3.2416    0.5370 O   0  0  0  0  0  0  0  0  0  0  0  0
   -4.2387   -0.6415   -0.6090 N   0  0  1  0  0  0  0  0  0  0  0  0
   -3.5006   -1.5524    0.2475 C   0  0  2  0  0  0  0  0  0  0  0  0
   -4.0205   -1.0679    1.6342 C   0  0  0  0  0  0  0  0  0  0  0  0
   -1.9887   -1.2270    0.0262 C   0  0  0  0  0  0  0  0  0  0  0  0
   -4.0482    0.6114   -0.0239 C   0  0  0  0  0  0  0  0  0  0  0  0
   -4.4199    0.4206    1.4393 C   0  0  0  0  0  0  0  0  0  0  0  0
   -1.6949    0.2415   -0.4574 C   0  0  1  0  0  0  0  0  0  0  0  0
   -2.8431    1.2091   -0.1817 C   0  0  0  0  0  0  0  0  0  0  0  0
   -4.3814   -0.9106   -2.0222 C   0  0  0  0  0  0  0  0  0  0  0  0
    0.6685    0.3966   -0.4262 C   0  0  0  0  0  0  0  0  0  0  0  0
    1.8365    0.9405    0.3916 C   0  0  1  0  0  0  0  0  0  0  0  0
    3.0644    0.0548    0.2507 C   0  0  0  0  0  0  0  0  0  0  0  0
    2.1204    2.3983    0.0014 C   0  0  0  0  0  0  0  0  0  0  0  0
    3.2665   -1.0038    1.1363 C   0  0  0  0  0  0  0  0  0  0  0  0
    3.9889    0.3012   -0.7642 C   0  0  0  0  0  0  0  0  0  0  0  0
    4.3932   -1.8161    1.0070 C   0  0  0  0  0  0  0  0  0  0  0  0
    5.1156   -0.5110   -0.8936 C   0  0  0  0  0  0  0  0  0  0  0  0
    5.3176   -1.5697   -0.0080 C   0  0  0  0  0  0  0  0  0  0  0  0
   -3.7228   -2.6115    0.0835 H   0  0  0  0  0  0  0  0  0  0  0  0
   -3.2739   -1.1944    2.4251 H   0  0  0  0  0  0  0  0  0  0  0  0
   -4.9107   -1.6401    1.9231 H   0  0  0  0  0  0  0  0  0  0  0  0
   -1.6058   -1.9015   -0.7516 H   0  0  0  0  0  0  0  0  0  0  0  0
   -1.4180   -1.4689    0.9315 H   0  0  0  0  0  0  0  0  0  0  0  0
   -3.8705    1.0662    2.1326 H   0  0  0  0  0  0  0  0  0  0  0  0
   -5.4930    0.5751    1.5925 H   0  0  0  0  0  0  0  0  0  0  0  0
   -1.5445    0.2527   -1.5451 H   0  0  0  0  0  0  0  0  0  0  0  0
   -2.5924    2.0907    0.4047 H   0  0  0  0  0  0  0  0  0  0  0  0
   -4.7680   -1.9231   -2.1773 H   0  0  0  0  0  0  0  0  0  0  0  0
   -3.4284   -0.8241   -2.5525 H   0  0  0  0  0  0  0  0  0  0  0  0
   -5.0921   -0.2111   -2.4745 H   0  0  0  0  0  0  0  0  0  0  0  0
    1.5337    0.9187    1.4483 H   0  0  0  0  0  0  0  0  0  0  0  0
    2.1248    2.5373   -1.0852 H   0  0  0  0  0  0  0  0  0  0  0  0
    3.0764    2.7426    0.4109 H   0  0  0  0  0  0  0  0  0  0  0  0
    2.5525   -1.2081    1.9297 H   0  0  0  0  0  0  0  0  0  0  0  0
    3.8542    1.1046   -1.4816 H   0  0  0  0  0  0  0  0  0  0  0  0
    4.5501   -2.6409    1.6959 H   0  0  0  0  0  0  0  0  0  0  0  0
    5.8335   -0.3221   -1.6864 H   0  0  0  0  0  0  0  0  0  0  0  0
    1.3205    4.1516    0.2704 H   0  0  0  0  0  0  0  0  0  0  0  0
    6.1942   -2.2027   -0.1096 H   0  0  0  0  0  0  0  0  0  0  0  0
  1 10  1  0  0  0  0
  1 13  1  0  0  0  0
  2 13  2  0  0  0  0
  3 16  1  0  0  0  0
  3 41  1  0  0  0  0
  4  5  1  0  0  0  0
  4  8  1  0  0  0  0
  4 12  1  0  0  0  0
  5  6  1  0  0  0  0
  5  7  1  0  0  0  0
  5 22  1  0  0  0  0
  6  9  1  0  0  0  0
  6 23  1  0  0  0  0
  6 24  1  0  0  0  0
  7 10  1  0  0  0  0
  7 25  1  0  0  0  0
  7 26  1  0  0  0  0
  8  9  1  0  0  0  0
  8 11  2  0  0  0  0
  9 27  1  0  0  0  0
  9 28  1  0  0  0  0
 10 11  1  0  0  0  0
 10 29  1  0  0  0  0
 11 30  1  0  0  0  0
 12 31  1  0  0  0  0
 12 32  1  0  0  0  0
 12 33  1  0  0  0  0
 13 14  1  0  0  0  0
 14 15  1  0  0  0  0
 14 16  1  0  0  0  0
 14 34  1  0  0  0  0
 15 17  2  0  0  0  0
 15 18  1  0  0  0  0
 16 35  1  0  0  0  0
 16 36  1  0  0  0  0
 17 19  1  0  0  0  0
 17 37  1  0  0  0  0
 18 20  2  0  0  0  0
 18 38  1  0  0  0  0
 19 21  2  0  0  0  0
 19 39  1  0  0  0  0
 20 21  1  0  0  0  0
 20 40  1  0  0  0  0
 21 42  1  0  0  0  0
M  END
> <PUBCHEM_COMPOUND_CID>
129646339

> <PUBCHEM_CONFORMER_RMSD>
0.8

> <PUBCHEM_CONFORMER_DIVERSEORDER>
1
90
109
91
138
22
115
55
10
146
58
59
97
76
129
131
101
35
142
118
75
92
18
110
113
147
15
69
62
148
126
9
67
46
17
86
37
50
128
28
127
14
13
89
66
102
39
3
71
137
152
136
134
16
57
151
73
21
119
116
70
30
93
29
63
2
12
60
24
53
7
32
36
103
130
107
4
68
150
84
106
145
8
54
5
140
141
34
149
96
122
81
117
85
94
123
135
125
40
6
100
98
114
33
132
74
49
121
88
95
47
44
65
83
99
45
56
105
120
72
144
51
19
82
104
139
112
20
79
61
143
108
25
111
80
64
26
78
124
133
77
23
41
27
42
48
11
38
31
43
52
87

> <PUBCHEM_MMFF94_PARTIAL_CHARGES>
26
1 -0.43
10 0.42
11 -0.29
12 0.37
13 0.66
14 0.2
15 -0.14
16 0.28
17 -0.15
18 -0.15
19 -0.15
2 -0.57
20 -0.15
21 -0.15
3 -0.68
30 0.15
37 0.15
38 0.15
39 0.15
4 -0.84
40 0.15
41 0.4
42 0.15
5 0.37
8 -0.04
9 0.14

> <PUBCHEM_EFFECTIVE_ROTOR_COUNT>
6

> <PUBCHEM_PHARMACOPHORE_FEATURES>
6
1 2 acceptor
1 3 acceptor
1 3 donor
1 4 cation
6 15 17 18 19 20 21 rings
8 4 5 6 7 8 9 10 11 rings

> <PUBCHEM_HEAVY_ATOM_COUNT>
21

> <PUBCHEM_ATOM_DEF_STEREO_COUNT>
1

> <PUBCHEM_ATOM_UDEF_STEREO_COUNT>
2

> <PUBCHEM_BOND_DEF_STEREO_COUNT>
0

> <PUBCHEM_BOND_UDEF_STEREO_COUNT>
0

> <PUBCHEM_ISOTOPIC_ATOM_COUNT>
0

> <PUBCHEM_COMPONENT_COUNT>
1

> <PUBCHEM_CACTVS_TAUTO_COUNT>
2

> <PUBCHEM_CONFORMER_ID>
07BA3F0300000001

> <PUBCHEM_MMFF94_ENERGY>
109.0859

> <PUBCHEM_FEATURE_SELFOVERLAP>
30.446

> <PUBCHEM_SHAPE_FINGERPRINT>
10366900 7 18186515518865906419
11405975 8 18411984676235437305
11552529 35 17982180212202603971
11796584 16 17749105556741457338
12516196 113 18413386532170040744
12553582 1 18408880724686958482
12596602 18 16845563223832350498
12633257 1 18343590646187598815
12760667 363 18264200319184396474
12788726 201 18267875986650874056
128620 24 12612754618341954306
12916754 54 18270960275685440911
13103583 49 18341067241258345545
13167823 11 18186242814138645538
13533116 47 18267582601682151115
13544653 18 18334294249594289020
13583140 156 18261949777568873047
13675066 3 15339121238450524844
14178342 30 16558761126306606463
14251764 38 13326579535852490178
14341114 176 18410020948088395097
14528608 73 7925624492972935522
14950920 106 18126032539953352331
15188451 53 16988544832515098511
15537594 2 18187370921732921378
15788980 27 17775284962831623111
17349148 13 17703790348927997319
17492 89 18124872610467312607
17804303 29 18334579044464596983
17844677 252 18113626672473158676
17857418 61 18409439280773012126
1813 80 18202006504141290100
18186145 218 17894907477385138137
18222031 100 18201995525983114492
19078846 21 18342743987806187104
19489759 90 16343701015489746995
20281475 54 18260547844092333486
20645477 70 18336537330371207942
20832881 197 18260828159723221920
21054139 6 10881694566786059520
21250096 35 18409445860952800210
221490 88 18261680392861667282
2215653 11 18114172039083541207
22646028 1 18342172275960862575
22950370 63 18336552638093463226
23402539 116 18201715124658706421
23503953 91 17489880349191577473
235170 7 15430033240765496730
23559900 14 18041555944240583997
3004659 81 17968377845624089234
312423 11 18128820918367890277
314173 85 18272931592549136552
314194 84 18408885131450277458
34797466 226 15719687510202537422
351380 3 18410858741789475418
465052 167 18413394249994604942
4990 188 15357699686704539708
5104073 3 18130792303993105419
5924683 9 16702009920700068367
59755656 520 18041276583468795247
8863177 126 18042420190582100227
960060 61 17894911828366318262
9709674 26 18190459565674552507
9841814 1 18336538391977444056
9971528 1 18201432601847216520

> <PUBCHEM_SHAPE_MULTIPOLES>
409.58
12.23
2.11
1.37
2.82
1.26
-0.19
-5.5
-0.12
1.28
0.53
-1.19
-0.37
-0.44

> <PUBCHEM_SHAPE_SELFOVERLAP>
871.374

> <PUBCHEM_SHAPE_VOLUME>
228.5

> <PUBCHEM_COORDINATE_TYPE>
2
5
10

$$$$
