5283626
  -OEChem-02172602483D

 76 79  0     1  0  0  0  0  0999 V2000
   -0.8490   -0.5904   -1.7567 O   0  0  0  0  0  0  0  0  0  0  0  0
    1.4782    2.6778    0.5813 O   0  0  0  0  0  0  0  0  0  0  0  0
    7.5274    0.6336   -1.2984 O   0  0  0  0  0  0  0  0  0  0  0  0
   -0.8470   -0.9500    0.6830 C   0  0  1  0  0  0  0  0  0  0  0  0
   -0.1453    0.3905    0.9941 C   0  0  2  0  0  0  0  0  0  0  0  0
    1.3850    0.2794    1.0552 C   0  0  1  0  0  0  0  0  0  0  0  0
    1.9267   -0.2903   -0.2917 C   0  0  1  0  0  0  0  0  0  0  0  0
   -2.3217   -0.4784    0.7834 C   0  0  2  0  0  0  0  0  0  0  0  0
   -0.3864   -1.4378   -0.7064 C   0  0  2  0  0  0  0  0  0  0  0  0
    3.4981   -0.4960   -0.2392 C   0  0  2  0  0  0  0  0  0  0  0  0
   -0.8808    0.9093    2.2284 C   0  0  0  0  0  0  0  0  0  0  0  0
    1.1498   -1.5508   -0.7787 C   0  0  0  0  0  0  0  0  0  0  0  0
   -2.3320    0.4362    2.0304 C   0  0  0  0  0  0  0  0  0  0  0  0
    2.0530    1.6356    1.3688 C   0  0  1  0  0  0  0  0  0  0  0  0
   -3.3785   -1.5721    0.8415 C   0  0  1  0  0  0  0  0  0  0  0  0
   -0.5494   -2.0572    1.7304 C   0  0  0  0  0  0  0  0  0  0  0  0
    4.1924    0.7021    0.4230 C   0  0  0  0  0  0  0  0  0  0  0  0
    4.0190   -0.6392   -1.7007 C   0  0  0  0  0  0  0  0  0  0  0  0
    3.5284    1.6398    1.1206 C   0  0  0  0  0  0  0  0  0  0  0  0
    3.8753   -1.7646    0.5649 C   0  0  0  0  0  0  0  0  0  0  0  0
    5.6905    0.8126    0.2531 C   0  0  0  0  0  0  0  0  0  0  0  0
    5.5403   -0.5869   -1.8346 C   0  0  0  0  0  0  0  0  0  0  0  0
   -4.8143   -1.0119    0.9188 C   0  0  0  0  0  0  0  0  0  0  0  0
    6.1069    0.6829   -1.2095 C   0  0  2  0  0  0  0  0  0  0  0  0
   -3.2582   -2.4847   -0.3856 C   0  0  0  0  0  0  0  0  0  0  0  0
   -5.2331   -0.0743   -0.2216 C   0  0  0  0  0  0  0  0  0  0  0  0
   -6.6401    0.5067   -0.0494 C   0  0  0  0  0  0  0  0  0  0  0  0
   -7.0869    1.3913   -1.2298 C   0  0  0  0  0  0  0  0  0  0  0  0
   -7.0482    0.6497   -2.5670 C   0  0  0  0  0  0  0  0  0  0  0  0
   -6.2002    2.6371   -1.3074 C   0  0  0  0  0  0  0  0  0  0  0  0
   -0.3858    1.0884    0.1764 H   0  0  0  0  0  0  0  0  0  0  0  0
    1.6619   -0.4069    1.8638 H   0  0  0  0  0  0  0  0  0  0  0  0
    1.7280    0.4847   -1.0491 H   0  0  0  0  0  0  0  0  0  0  0  0
   -2.5248    0.1716   -0.0758 H   0  0  0  0  0  0  0  0  0  0  0  0
   -0.7520   -2.4379   -0.9397 H   0  0  0  0  0  0  0  0  0  0  0  0
   -0.8323    1.9987    2.3160 H   0  0  0  0  0  0  0  0  0  0  0  0
   -0.4644    0.4873    3.1500 H   0  0  0  0  0  0  0  0  0  0  0  0
    1.4315   -1.7566   -1.8181 H   0  0  0  0  0  0  0  0  0  0  0  0
    1.4475   -2.4239   -0.1914 H   0  0  0  0  0  0  0  0  0  0  0  0
   -2.6727   -0.0907    2.9290 H   0  0  0  0  0  0  0  0  0  0  0  0
   -3.0020    1.2897    1.8774 H   0  0  0  0  0  0  0  0  0  0  0  0
    1.8832    1.8848    2.4234 H   0  0  0  0  0  0  0  0  0  0  0  0
   -3.2395   -2.1907    1.7368 H   0  0  0  0  0  0  0  0  0  0  0  0
   -1.0110   -3.0091    1.4502 H   0  0  0  0  0  0  0  0  0  0  0  0
    0.5201   -2.2563    1.8388 H   0  0  0  0  0  0  0  0  0  0  0  0
   -0.9214   -1.8025    2.7277 H   0  0  0  0  0  0  0  0  0  0  0  0
    3.5989    0.1649   -2.3203 H   0  0  0  0  0  0  0  0  0  0  0  0
    3.6698   -1.5812   -2.1401 H   0  0  0  0  0  0  0  0  0  0  0  0
    4.0772    2.4766    1.5472 H   0  0  0  0  0  0  0  0  0  0  0  0
    3.5617   -2.6787    0.0504 H   0  0  0  0  0  0  0  0  0  0  0  0
    4.9562   -1.8599    0.7129 H   0  0  0  0  0  0  0  0  0  0  0  0
    3.4201   -1.7649    1.5606 H   0  0  0  0  0  0  0  0  0  0  0  0
    6.0719    1.7643    0.6453 H   0  0  0  0  0  0  0  0  0  0  0  0
    6.1893    0.0420    0.8542 H   0  0  0  0  0  0  0  0  0  0  0  0
    5.9993   -1.4723   -1.3776 H   0  0  0  0  0  0  0  0  0  0  0  0
    5.8207   -0.6301   -2.8944 H   0  0  0  0  0  0  0  0  0  0  0  0
   -5.5226   -1.8497    0.9636 H   0  0  0  0  0  0  0  0  0  0  0  0
   -4.9342   -0.4777    1.8698 H   0  0  0  0  0  0  0  0  0  0  0  0
   -1.8083   -0.6839   -1.8466 H   0  0  0  0  0  0  0  0  0  0  0  0
    5.7662    1.5562   -1.7792 H   0  0  0  0  0  0  0  0  0  0  0  0
   -4.1551   -3.1133   -0.4627 H   0  0  0  0  0  0  0  0  0  0  0  0
   -2.4423   -3.2004   -0.2881 H   0  0  0  0  0  0  0  0  0  0  0  0
   -3.1926   -1.9437   -1.3296 H   0  0  0  0  0  0  0  0  0  0  0  0
    0.6613    2.9689    1.0191 H   0  0  0  0  0  0  0  0  0  0  0  0
   -4.5251    0.7552   -0.2849 H   0  0  0  0  0  0  0  0  0  0  0  0
   -5.1713   -0.6300   -1.1617 H   0  0  0  0  0  0  0  0  0  0  0  0
    7.8741    1.4504   -0.9006 H   0  0  0  0  0  0  0  0  0  0  0  0
   -6.6873    1.0842    0.8822 H   0  0  0  0  0  0  0  0  0  0  0  0
   -7.3546   -0.3191    0.0594 H   0  0  0  0  0  0  0  0  0  0  0  0
   -8.1187    1.7105   -1.0373 H   0  0  0  0  0  0  0  0  0  0  0  0
   -6.0270    0.4388   -2.8995 H   0  0  0  0  0  0  0  0  0  0  0  0
   -7.5225    1.2553   -3.3473 H   0  0  0  0  0  0  0  0  0  0  0  0
   -7.5949   -0.2968   -2.5037 H   0  0  0  0  0  0  0  0  0  0  0  0
   -5.1770    2.4044   -1.6185 H   0  0  0  0  0  0  0  0  0  0  0  0
   -6.6073    3.3429   -2.0402 H   0  0  0  0  0  0  0  0  0  0  0  0
   -6.1593    3.1526   -0.3422 H   0  0  0  0  0  0  0  0  0  0  0  0
  1  9  1  0  0  0  0
  1 59  1  0  0  0  0
  2 14  1  0  0  0  0
  2 64  1  0  0  0  0
  3 24  1  0  0  0  0
  3 67  1  0  0  0  0
  4  5  1  0  0  0  0
  4  8  1  0  0  0  0
  4  9  1  0  0  0  0
  4 16  1  0  0  0  0
  5  6  1  0  0  0  0
  5 11  1  0  0  0  0
  5 31  1  0  0  0  0
  6  7  1  0  0  0  0
  6 14  1  0  0  0  0
  6 32  1  0  0  0  0
  7 10  1  0  0  0  0
  7 12  1  0  0  0  0
  7 33  1  0  0  0  0
  8 13  1  0  0  0  0
  8 15  1  0  0  0  0
  8 34  1  0  0  0  0
  9 12  1  0  0  0  0
  9 35  1  0  0  0  0
 10 17  1  0  0  0  0
 10 18  1  0  0  0  0
 10 20  1  0  0  0  0
 11 13  1  0  0  0  0
 11 36  1  0  0  0  0
 11 37  1  0  0  0  0
 12 38  1  0  0  0  0
 12 39  1  0  0  0  0
 13 40  1  0  0  0  0
 13 41  1  0  0  0  0
 14 19  1  0  0  0  0
 14 42  1  0  0  0  0
 15 23  1  0  0  0  0
 15 25  1  0  0  0  0
 15 43  1  0  0  0  0
 16 44  1  0  0  0  0
 16 45  1  0  0  0  0
 16 46  1  0  0  0  0
 17 19  2  0  0  0  0
 17 21  1  0  0  0  0
 18 22  1  0  0  0  0
 18 47  1  0  0  0  0
 18 48  1  0  0  0  0
 19 49  1  0  0  0  0
 20 50  1  0  0  0  0
 20 51  1  0  0  0  0
 20 52  1  0  0  0  0
 21 24  1  0  0  0  0
 21 53  1  0  0  0  0
 21 54  1  0  0  0  0
 22 24  1  0  0  0  0
 22 55  1  0  0  0  0
 22 56  1  0  0  0  0
 23 26  1  0  0  0  0
 23 57  1  0  0  0  0
 23 58  1  0  0  0  0
 24 60  1  0  0  0  0
 25 61  1  0  0  0  0
 25 62  1  0  0  0  0
 25 63  1  0  0  0  0
 26 27  1  0  0  0  0
 26 65  1  0  0  0  0
 26 66  1  0  0  0  0
 27 28  1  0  0  0  0
 27 68  1  0  0  0  0
 27 69  1  0  0  0  0
 28 29  1  0  0  0  0
 28 30  1  0  0  0  0
 28 70  1  0  0  0  0
 29 71  1  0  0  0  0
 29 72  1  0  0  0  0
 29 73  1  0  0  0  0
 30 74  1  0  0  0  0
 30 75  1  0  0  0  0
 30 76  1  0  0  0  0
M  END
> <PUBCHEM_COMPOUND_CID>
5283626

> <PUBCHEM_CONFORMER_RMSD>
0.8

> <PUBCHEM_CONFORMER_DIVERSEORDER>
1
5
3
4
2

> <PUBCHEM_MMFF94_PARTIAL_CHARGES>
14
1 -0.68
10 0.14
14 0.42
17 -0.28
19 -0.29
2 -0.68
21 0.14
24 0.28
3 -0.68
49 0.15
59 0.4
64 0.4
67 0.4
9 0.28

> <PUBCHEM_EFFECTIVE_ROTOR_COUNT>
7

> <PUBCHEM_PHARMACOPHORE_FEATURES>
13
1 1 acceptor
1 1 donor
1 2 acceptor
1 2 donor
1 25 hydrophobe
1 3 acceptor
1 3 donor
3 28 29 30 hydrophobe
5 15 23 26 27 28 hydrophobe
5 4 5 8 11 13 rings
6 10 17 18 21 22 24 rings
6 4 5 6 7 9 12 rings
6 6 7 10 14 17 19 rings

> <PUBCHEM_HEAVY_ATOM_COUNT>
30

> <PUBCHEM_ATOM_DEF_STEREO_COUNT>
10

> <PUBCHEM_ATOM_UDEF_STEREO_COUNT>
0

> <PUBCHEM_BOND_DEF_STEREO_COUNT>
0

> <PUBCHEM_BOND_UDEF_STEREO_COUNT>
0

> <PUBCHEM_ISOTOPIC_ATOM_COUNT>
0

> <PUBCHEM_COMPONENT_COUNT>
1

> <PUBCHEM_CACTVS_TAUTO_COUNT>
1

> <PUBCHEM_CONFORMER_ID>
00509F2A00000001

> <PUBCHEM_MMFF94_ENERGY>
96.1168

> <PUBCHEM_FEATURE_SELFOVERLAP>
66.067

> <PUBCHEM_SHAPE_FINGERPRINT>
10 15 8142079836674305614
10554248 39 17823397337270169775
10674148 151 16587749720693375446
10693767 8 17203331048798750342
10763959 59 18410013268597445725
11456790 92 15285354042428157996
11578080 2 18114747010407779031
11963148 33 12391518542228192188
12011746 2 18272942634846744610
12236239 1 15626233415624542442
12838862 33 17917704726470396568
13690498 29 18198902699150116751
13782708 43 12823305584518018324
14068700 675 15554450678103111898
14251764 18 15430042088756517251
14765038 42 14273463582373372663
14849402 71 14635450336846345135
14931854 50 18343033176981770902
15183329 4 18272650121972940369
15188451 53 12535343494157626137
15238133 3 17167857590818965216
16994733 274 17096094709453817684
17349148 13 16056614165395002506
18222031 100 17346881130762945746
20775438 99 15478681236511532437
21033648 29 18113893913790898905
21267235 1 17702684257811380354
21279426 13 18130788996720879531
21424621 283 17313104133805359441
21521239 73 17203885271409728237
21637258 2 13398627243249481617
21756936 100 16370728149830590859
21781055 127 14635156660479618518
21859007 373 18339062848483050176
22122407 14 16515985734123816765
22149856 69 10809622546585467311
2215653 11 17989491826739616354
22393880 68 18272364321795825075
23522609 53 14835023821827547618
23559900 14 18060142088870168146
23569914 152 17337312970282858767
23576562 1 18199181970117047349
2838139 119 18336535033386754285
3004659 81 18060421343227421754
3009799 131 18273216395571561739
335352 9 17774735236982318426
3633792 109 17275108323037013960
3882209 13 17478327531010714079
4015057 19 17346034580293319331
4058900 60 18040437646795160171
4093350 32 16515682235181981506
4098825 35 17676203538168815094
474113 269 18270394963790988774
484989 97 17702942686115250991
5104073 3 13118574025110149672
54039377 194 15482664728874422263
59755656 215 18343019973735312201
6086070 43 18341603850035116755
6328613 192 17821447941729103373
7226269 152 16950561069826083749

> <PUBCHEM_SHAPE_MULTIPOLES>
599.78
17.6
2.23
2.08
10.03
0.15
0.19
9.05
11.2
1.92
-0.09
0.45
0.37
1.98

> <PUBCHEM_SHAPE_SELFOVERLAP>
1246.572

> <PUBCHEM_SHAPE_VOLUME>
339.4

> <PUBCHEM_COORDINATE_TYPE>
2
5
10

$$$$
