157009945
  -OEChem-02172602563D

 77 80  0     1  0  0  0  0  0999 V2000
   -7.8014   -1.5929    0.4797 O   0  0  0  0  0  0  0  0  0  0  0  0
    0.6117    0.7756   -0.2640 C   0  0  1  0  0  0  0  0  0  0  0  0
   -0.5595    1.7414   -0.5548 C   0  0  1  0  0  0  0  0  0  0  0  0
   -2.2638   -0.0001    0.3600 C   0  0  2  0  0  0  0  0  0  0  0  0
   -3.6117   -0.7615    0.0333 C   0  0  2  0  0  0  0  0  0  0  0  0
    1.7159    1.7774    0.1659 C   0  0  1  0  0  0  0  0  0  0  0  0
   -1.9253    1.0957   -0.6481 C   0  0  0  0  0  0  0  0  0  0  0  0
    0.2351   -0.2209    0.8567 C   0  0  0  0  0  0  0  0  0  0  0  0
   -1.0720   -0.9595    0.5677 C   0  0  0  0  0  0  0  0  0  0  0  0
   -0.4744    2.7962    0.5634 C   0  0  0  0  0  0  0  0  0  0  0  0
   -4.6691    0.3106   -0.3724 C   0  0  1  0  0  0  0  0  0  0  0  0
    0.9825    2.8086    1.0325 C   0  0  0  0  0  0  0  0  0  0  0  0
    2.9282    1.1809    0.8692 C   0  0  1  0  0  0  0  0  0  0  0  0
   -4.1213   -1.5027    1.3007 C   0  0  0  0  0  0  0  0  0  0  0  0
    1.0350    0.0165   -1.5341 C   0  0  0  0  0  0  0  0  0  0  0  0
   -4.2380    1.0686   -1.6361 C   0  0  0  0  0  0  0  0  0  0  0  0
   -2.8156    1.5338   -1.5579 C   0  0  0  0  0  0  0  0  0  0  0  0
   -6.0872   -0.2546   -0.5266 C   0  0  0  0  0  0  0  0  0  0  0  0
   -3.4060   -1.8014   -1.1010 C   0  0  0  0  0  0  0  0  0  0  0  0
   -5.5330   -2.0682    1.1462 C   0  0  0  0  0  0  0  0  0  0  0  0
   -6.5344   -0.9945    0.7315 C   0  0  2  0  0  0  0  0  0  0  0  0
    3.6719    0.1468   -0.0023 C   0  0  0  0  0  0  0  0  0  0  0  0
    3.8984    2.2953    1.2766 C   0  0  0  0  0  0  0  0  0  0  0  0
    5.0954   -0.1444    0.4885 C   0  0  0  0  0  0  0  0  0  0  0  0
    5.8236   -1.2432   -0.3225 C   0  0  2  0  0  0  0  0  0  0  0  0
    7.1490   -1.7268    0.3334 C   0  0  0  0  0  0  0  0  0  0  0  0
    6.0013   -0.7515   -1.7663 C   0  0  0  0  0  0  0  0  0  0  0  0
    7.7866   -2.9294   -0.3675 C   0  0  0  0  0  0  0  0  0  0  0  0
    8.1779   -0.5957    0.4483 C   0  0  0  0  0  0  0  0  0  0  0  0
   -0.3421    2.2591   -1.5018 H   0  0  0  0  0  0  0  0  0  0  0  0
   -2.4145    0.5236    1.3160 H   0  0  0  0  0  0  0  0  0  0  0  0
    2.0665    2.3129   -0.7300 H   0  0  0  0  0  0  0  0  0  0  0  0
    0.1293    0.2952    1.8188 H   0  0  0  0  0  0  0  0  0  0  0  0
    1.0279   -0.9642    0.9983 H   0  0  0  0  0  0  0  0  0  0  0  0
   -0.9188   -1.5920   -0.3130 H   0  0  0  0  0  0  0  0  0  0  0  0
   -1.2773   -1.6342    1.4063 H   0  0  0  0  0  0  0  0  0  0  0  0
   -1.1317    2.5637    1.4093 H   0  0  0  0  0  0  0  0  0  0  0  0
   -0.7755    3.7815    0.1892 H   0  0  0  0  0  0  0  0  0  0  0  0
   -4.7189    1.0471    0.4457 H   0  0  0  0  0  0  0  0  0  0  0  0
    1.4133    3.8092    0.9166 H   0  0  0  0  0  0  0  0  0  0  0  0
    1.0232    2.5531    2.0980 H   0  0  0  0  0  0  0  0  0  0  0  0
    2.6165    0.6838    1.7965 H   0  0  0  0  0  0  0  0  0  0  0  0
   -4.1200   -0.8117    2.1540 H   0  0  0  0  0  0  0  0  0  0  0  0
   -3.4448   -2.3230    1.5672 H   0  0  0  0  0  0  0  0  0  0  0  0
    1.5952    0.6548   -2.2258 H   0  0  0  0  0  0  0  0  0  0  0  0
    0.1528   -0.3308   -2.0856 H   0  0  0  0  0  0  0  0  0  0  0  0
    1.6213   -0.8813   -1.3336 H   0  0  0  0  0  0  0  0  0  0  0  0
   -4.8854    1.9452   -1.7616 H   0  0  0  0  0  0  0  0  0  0  0  0
   -4.3647    0.4531   -2.5342 H   0  0  0  0  0  0  0  0  0  0  0  0
   -2.5301    2.3127   -2.2605 H   0  0  0  0  0  0  0  0  0  0  0  0
   -6.7947    0.5597   -0.7312 H   0  0  0  0  0  0  0  0  0  0  0  0
   -6.1597   -0.9167   -1.3980 H   0  0  0  0  0  0  0  0  0  0  0  0
   -2.8654   -1.3795   -1.9542 H   0  0  0  0  0  0  0  0  0  0  0  0
   -4.3523   -2.1952   -1.4822 H   0  0  0  0  0  0  0  0  0  0  0  0
   -2.8334   -2.6663   -0.7480 H   0  0  0  0  0  0  0  0  0  0  0  0
   -5.5418   -2.8904    0.4202 H   0  0  0  0  0  0  0  0  0  0  0  0
   -5.8534   -2.5191    2.0937 H   0  0  0  0  0  0  0  0  0  0  0  0
   -6.6639   -0.2741    1.5482 H   0  0  0  0  0  0  0  0  0  0  0  0
    3.7154    0.5158   -1.0313 H   0  0  0  0  0  0  0  0  0  0  0  0
    3.1301   -0.8014    0.0103 H   0  0  0  0  0  0  0  0  0  0  0  0
    4.3616    2.7652    0.4019 H   0  0  0  0  0  0  0  0  0  0  0  0
    3.4000    3.0848    1.8474 H   0  0  0  0  0  0  0  0  0  0  0  0
    4.6870    1.9294    1.9421 H   0  0  0  0  0  0  0  0  0  0  0  0
    5.7040    0.7637    0.4328 H   0  0  0  0  0  0  0  0  0  0  0  0
    5.0528   -0.4529    1.5405 H   0  0  0  0  0  0  0  0  0  0  0  0
   -8.0751   -2.0521    1.2920 H   0  0  0  0  0  0  0  0  0  0  0  0
    5.1595   -2.1180   -0.3589 H   0  0  0  0  0  0  0  0  0  0  0  0
    6.9040   -2.0499    1.3543 H   0  0  0  0  0  0  0  0  0  0  0  0
    5.0380   -0.6472   -2.2747 H   0  0  0  0  0  0  0  0  0  0  0  0
    6.5799   -1.4625   -2.3630 H   0  0  0  0  0  0  0  0  0  0  0  0
    6.5108    0.2166   -1.8071 H   0  0  0  0  0  0  0  0  0  0  0  0
    8.6175   -3.3236    0.2279 H   0  0  0  0  0  0  0  0  0  0  0  0
    7.0572   -3.7358   -0.4950 H   0  0  0  0  0  0  0  0  0  0  0  0
    8.1846   -2.6666   -1.3523 H   0  0  0  0  0  0  0  0  0  0  0  0
    8.4742   -0.2128   -0.5332 H   0  0  0  0  0  0  0  0  0  0  0  0
    7.7981    0.2383    1.0453 H   0  0  0  0  0  0  0  0  0  0  0  0
    9.0849   -0.9564    0.9467 H   0  0  0  0  0  0  0  0  0  0  0  0
  1 21  1  0  0  0  0
  1 66  1  0  0  0  0
  2  3  1  0  0  0  0
  2  6  1  0  0  0  0
  2  8  1  0  0  0  0
  2 15  1  0  0  0  0
  3  7  1  0  0  0  0
  3 10  1  0  0  0  0
  3 30  1  0  0  0  0
  4  5  1  0  0  0  0
  4  7  1  0  0  0  0
  4  9  1  0  0  0  0
  4 31  1  0  0  0  0
  5 11  1  0  0  0  0
  5 14  1  0  0  0  0
  5 19  1  0  0  0  0
  6 12  1  0  0  0  0
  6 13  1  0  0  0  0
  6 32  1  0  0  0  0
  7 17  2  0  0  0  0
  8  9  1  0  0  0  0
  8 33  1  0  0  0  0
  8 34  1  0  0  0  0
  9 35  1  0  0  0  0
  9 36  1  0  0  0  0
 10 12  1  0  0  0  0
 10 37  1  0  0  0  0
 10 38  1  0  0  0  0
 11 16  1  0  0  0  0
 11 18  1  0  0  0  0
 11 39  1  0  0  0  0
 12 40  1  0  0  0  0
 12 41  1  0  0  0  0
 13 22  1  0  0  0  0
 13 23  1  0  0  0  0
 13 42  1  0  0  0  0
 14 20  1  0  0  0  0
 14 43  1  0  0  0  0
 14 44  1  0  0  0  0
 15 45  1  0  0  0  0
 15 46  1  0  0  0  0
 15 47  1  0  0  0  0
 16 17  1  0  0  0  0
 16 48  1  0  0  0  0
 16 49  1  0  0  0  0
 17 50  1  0  0  0  0
 18 21  1  0  0  0  0
 18 51  1  0  0  0  0
 18 52  1  0  0  0  0
 19 53  1  0  0  0  0
 19 54  1  0  0  0  0
 19 55  1  0  0  0  0
 20 21  1  0  0  0  0
 20 56  1  0  0  0  0
 20 57  1  0  0  0  0
 21 58  1  0  0  0  0
 22 24  1  0  0  0  0
 22 59  1  0  0  0  0
 22 60  1  0  0  0  0
 23 61  1  0  0  0  0
 23 62  1  0  0  0  0
 23 63  1  0  0  0  0
 24 25  1  0  0  0  0
 24 64  1  0  0  0  0
 24 65  1  0  0  0  0
 25 26  1  0  0  0  0
 25 27  1  0  0  0  0
 25 67  1  0  0  0  0
 26 28  1  0  0  0  0
 26 29  1  0  0  0  0
 26 68  1  0  0  0  0
 27 69  1  0  0  0  0
 27 70  1  0  0  0  0
 27 71  1  0  0  0  0
 28 72  1  0  0  0  0
 28 73  1  0  0  0  0
 28 74  1  0  0  0  0
 29 75  1  0  0  0  0
 29 76  1  0  0  0  0
 29 77  1  0  0  0  0
M  END
> <PUBCHEM_COMPOUND_CID>
157009945

> <PUBCHEM_CONFORMER_RMSD>
0.8

> <PUBCHEM_CONFORMER_DIVERSEORDER>
1
394
116
275
16
388
168
462
337
218
103
170
17
89
102
284
410
210
180
163
344
82
352
355
235
18
164
286
333
61
40
50
423
253
401
242
43
73
341
360
407
22
276
39
330
171
69
283
217
399
385
287
434
301
48
68
234
214
279
205
362
262
118
176
37
346
289
409
193
143
313
9
52
41
32
304
310
63
249
448
139
45
182
389
457
21
354
222
147
239
302
226
364
132
66
158
299
19
221
349
35
265
90
146
245
258
62
94
387
142
153
361
429
121
393
7
243
30
114
281
84
353
20
274
99
79
211
119
12
80
406
77
375
219
209
280
78
148
425
38
260
312
247
64
316
326
300
278
150
467
54
53
106
380
268
320
26
328
59
157
8
191
347
396
259
199
24
76
332
419
204
203
74
270
233
83
93
317
356
25
295
136
282
91
311
297
241
11
208
177
359
228
413
198
112
128
55
179
123
248
398
188
134
391
324
174
155
122
151
201
240
252
264
445
322
390
4
207
56
372
430
149
392
358
373
291
185
251
110
33
105
263
254
271
379
72
402
444
293
130
383
431
397
323
178
135
60
131
184
363
87
408
230
227
223
468
2
266
237
120
357
169
345
113
189
165
98
339
57
137
5
318
454
229
269
374
329
421
319
166
432
215
225
96
196
290
307
331
115
415
238
160
294
465
44
296
455
133
236
190
213
428
75
124
71
365
377
246
13
145
220
162
51
85
340
49
224
350
42
435
3
273
107
23
267
308
453
100
65
36
67
367
366
31
14
305
81
181
418
314
27
395
108
15
277
404
46
403
206
272
327
424
452
140
439
422
183
261
175
250
141
117
34
370
292
195
127
200
470
334
411
384
10
315
447
466
256
405
187
437
244
194
6
29
232
381
111
152
216
351
400
442
70
92
101
382
192
126
378
426
427
471
325
88
161
321
446
414
433
86
288
173
303
156
451
104
463
335
159
109
172
336
138
95
306
167
47
443
197
343
450
449
469
212
420
255
154
202
309
257
186
458
386
371
298
144
440
368
58
342
441
129
412
436
369
97
456
460
417
376
416
285
348
338
464
461
125
231
28
459
438

> <PUBCHEM_MMFF94_PARTIAL_CHARGES>
9
1 -0.68
16 0.14
17 -0.29
21 0.28
3 0.14
4 0.14
50 0.15
66 0.4
7 -0.28

> <PUBCHEM_EFFECTIVE_ROTOR_COUNT>
7

> <PUBCHEM_PHARMACOPHORE_FEATURES>
10
1 1 acceptor
1 1 donor
1 23 hydrophobe
1 27 hydrophobe
3 26 28 29 hydrophobe
5 13 22 24 25 26 hydrophobe
5 2 3 6 10 12 rings
6 2 3 4 7 8 9 rings
6 4 5 7 11 16 17 rings
6 5 11 14 18 20 21 rings

> <PUBCHEM_HEAVY_ATOM_COUNT>
29

> <PUBCHEM_ATOM_DEF_STEREO_COUNT>
5

> <PUBCHEM_ATOM_UDEF_STEREO_COUNT>
4

> <PUBCHEM_BOND_DEF_STEREO_COUNT>
0

> <PUBCHEM_BOND_UDEF_STEREO_COUNT>
0

> <PUBCHEM_ISOTOPIC_ATOM_COUNT>
0

> <PUBCHEM_COMPONENT_COUNT>
1

> <PUBCHEM_CACTVS_TAUTO_COUNT>
-1

> <PUBCHEM_CONFORMER_ID>
095BC81900000001

> <PUBCHEM_MMFF94_ENERGY>
87.8249

> <PUBCHEM_FEATURE_SELFOVERLAP>
50.989

> <PUBCHEM_SHAPE_FINGERPRINT>
10 15 12031788071556407974
10076449 9 18409736166519362896
10674148 151 18113052727656725841
11273773 42 12540687094788323743
11273773 46 18336544906693712895
11456790 92 17632310003707797163
11524674 6 17847061099400550455
12166972 35 17894635863758945084
12236239 1 15213285444630821373
12516196 113 18343581842026777640
12616971 3 16845290570359392652
12645989 146 18341608278700241551
12760667 363 18272084968353188320
13288520 33 18259984868706738053
13540713 4 18340186541220112928
13673619 4 18335139803869107549
13685833 64 18413108360091791442
13690498 29 18186232922586220853
13782708 43 18337392763893557947
14068700 675 18041000631155857252
14202776 33 15502644950103681223
14216079 64 18412547608576498426
14294032 229 16878774978062198805
14341114 176 18341611572655515569
14347424 109 17917713538936517848
14420673 8 18335704962089781987
14767858 380 13695584451538167012
14856354 85 16805326604556517299
14955137 171 18338518646462392817
15131766 46 17128722806654193121
15183329 4 16298387933922676694
15510800 12 18129388116582583710
17980427 23 12319445593554963216
18335252 98 18408886257359177104
18603816 31 17703780466752335351
18643901 69 17967817132963266959
19301679 30 17560531586506330702
20105231 36 17385449847667551955
2026 5 18336263432271747698
20511986 3 13901917665783409517
21033650 10 17023180466513045125
21130935 74 18199467847772839579
21150785 3 16008749112992110098
21267235 1 18113620105947762531
21279426 13 18337099094982746885
21365058 113 17821731671427112125
21682296 61 18412827988594686619
21781051 124 17603595165561233499
21792961 116 18261669277217559022
21859007 373 11383850250844475752
21927370 108 17988650653785952456
2297311 6 17894347791939119237
23198884 109 15936131854539888094
23522609 53 18122660281535192992
23559900 14 18336256916874372648
23569917 315 18190185771324194739
23569943 247 18343299236952416139
24771750 20 17683530902990953788
25269216 80 15936131872479425755
2838139 119 9799401209955238018
3004659 81 17603302678435801788
3178227 256 18131632288259647846
335352 9 17894623752710455215
3383291 50 18410853257243411090
34797466 226 17676768789998380388
4107672 100 17458621164857701213
4340502 62 14836413531299381220
437815 12 18411983571969756929
439807 62 18187649089748162338
4461854 278 17418091010844172414
44880168 125 18342731953418794839
465052 167 18272373079397106980
504579 68 15647050477678562863
5104073 3 16701166641887731438
54039377 194 18412831262093320822
563151 40 17751362785710582153
58083652 198 17131817777172191784
59755656 215 18040714775249279043
6138700 20 18335139782420723043
636775 8 18339088103956094590
6608658 132 15285632149696068292
8863177 126 18337390551505281362
9896288 288 18058176016562818273
9962374 69 18201426035047760862
999808 66 18408887325772299263

> <PUBCHEM_SHAPE_MULTIPOLES>
590.94
20.49
2.78
1.4
19.56
0.62
-0.34
-18.34
0.71
1.51
0.59
-0.38
0.12
2.42

> <PUBCHEM_SHAPE_SELFOVERLAP>
1222.127

> <PUBCHEM_SHAPE_VOLUME>
336.4

> <PUBCHEM_COORDINATE_TYPE>
2
5
10

$$$$
