14657303
  -OEChem-02172602233D

 41 42  0     1  0  0  0  0  0999 V2000
   -0.8041    0.8516    0.4886 O   0  0  0  0  0  0  0  0  0  0  0  0
   -3.5584   -1.9562   -0.8184 O   0  0  0  0  0  0  0  0  0  0  0  0
   -0.5081   -0.5466    0.5704 C   0  0  2  0  0  0  0  0  0  0  0  0
    1.0001   -0.6657    0.3032 C   0  0  2  0  0  0  0  0  0  0  0  0
   -1.2601   -1.4027   -0.4553 C   0  0  0  0  0  0  0  0  0  0  0  0
    1.8100    0.1131    1.3445 C   0  0  0  0  0  0  0  0  0  0  0  0
   -2.0626    1.2683   -0.0513 C   0  0  0  0  0  0  0  0  0  0  0  0
    1.3437   -0.1752   -1.1124 C   0  0  0  0  0  0  0  0  0  0  0  0
   -3.1761    0.2235    0.0890 C   0  0  0  0  0  0  0  0  0  0  0  0
   -0.7745   -1.0150    2.0090 C   0  0  0  0  0  0  0  0  0  0  0  0
    3.3152   -0.0503    1.1112 C   0  0  0  0  0  0  0  0  0  0  0  0
   -2.7407   -1.1225   -0.4308 C   0  0  0  0  0  0  0  0  0  0  0  0
    2.8165    0.0115   -1.3327 C   0  0  0  0  0  0  0  0  0  0  0  0
    3.7194    0.0547   -0.3380 C   0  0  0  0  0  0  0  0  0  0  0  0
   -2.4582    2.5220    0.7437 C   0  0  0  0  0  0  0  0  0  0  0  0
   -1.8494    1.6815   -1.5153 C   0  0  0  0  0  0  0  0  0  0  0  0
    5.1874    0.2079   -0.6054 C   0  0  0  0  0  0  0  0  0  0  0  0
    1.2914   -1.7245    0.3747 H   0  0  0  0  0  0  0  0  0  0  0  0
   -1.0993   -2.4690   -0.2590 H   0  0  0  0  0  0  0  0  0  0  0  0
   -0.9662   -1.2021   -1.4872 H   0  0  0  0  0  0  0  0  0  0  0  0
    1.6117   -0.2242    2.3662 H   0  0  0  0  0  0  0  0  0  0  0  0
    1.5617    1.1817    1.3056 H   0  0  0  0  0  0  0  0  0  0  0  0
    0.8592    0.7768   -1.3486 H   0  0  0  0  0  0  0  0  0  0  0  0
    1.0150   -0.9088   -1.8559 H   0  0  0  0  0  0  0  0  0  0  0  0
   -4.0756    0.5389   -0.4517 H   0  0  0  0  0  0  0  0  0  0  0  0
   -3.4450    0.0826    1.1419 H   0  0  0  0  0  0  0  0  0  0  0  0
   -0.4822   -0.2646    2.7512 H   0  0  0  0  0  0  0  0  0  0  0  0
   -1.8435   -1.1767    2.1827 H   0  0  0  0  0  0  0  0  0  0  0  0
   -0.2735   -1.9635    2.2302 H   0  0  0  0  0  0  0  0  0  0  0  0
    3.6374   -1.0287    1.4894 H   0  0  0  0  0  0  0  0  0  0  0  0
    3.8411    0.7108    1.7002 H   0  0  0  0  0  0  0  0  0  0  0  0
    3.1440    0.1112   -2.3644 H   0  0  0  0  0  0  0  0  0  0  0  0
   -1.6825    3.2934    0.6721 H   0  0  0  0  0  0  0  0  0  0  0  0
   -3.4035    2.9461    0.3892 H   0  0  0  0  0  0  0  0  0  0  0  0
   -2.5609    2.2884    1.8099 H   0  0  0  0  0  0  0  0  0  0  0  0
   -2.7631    2.1033   -1.9479 H   0  0  0  0  0  0  0  0  0  0  0  0
   -1.0546    2.4325   -1.5946 H   0  0  0  0  0  0  0  0  0  0  0  0
   -1.5395    0.8423   -2.1432 H   0  0  0  0  0  0  0  0  0  0  0  0
    5.4091    0.2613   -1.6765 H   0  0  0  0  0  0  0  0  0  0  0  0
    5.7383   -0.6436   -0.1932 H   0  0  0  0  0  0  0  0  0  0  0  0
    5.5647    1.1245   -0.1407 H   0  0  0  0  0  0  0  0  0  0  0  0
  1  3  1  0  0  0  0
  1  7  1  0  0  0  0
  2 12  2  0  0  0  0
  3  4  1  0  0  0  0
  3  5  1  0  0  0  0
  3 10  1  0  0  0  0
  4  6  1  0  0  0  0
  4  8  1  0  0  0  0
  4 18  1  0  0  0  0
  5 12  1  0  0  0  0
  5 19  1  0  0  0  0
  5 20  1  0  0  0  0
  6 11  1  0  0  0  0
  6 21  1  0  0  0  0
  6 22  1  0  0  0  0
  7  9  1  0  0  0  0
  7 15  1  0  0  0  0
  7 16  1  0  0  0  0
  8 13  1  0  0  0  0
  8 23  1  0  0  0  0
  8 24  1  0  0  0  0
  9 12  1  0  0  0  0
  9 25  1  0  0  0  0
  9 26  1  0  0  0  0
 10 27  1  0  0  0  0
 10 28  1  0  0  0  0
 10 29  1  0  0  0  0
 11 14  1  0  0  0  0
 11 30  1  0  0  0  0
 11 31  1  0  0  0  0
 13 14  2  0  0  0  0
 13 32  1  0  0  0  0
 14 17  1  0  0  0  0
 15 33  1  0  0  0  0
 15 34  1  0  0  0  0
 15 35  1  0  0  0  0
 16 36  1  0  0  0  0
 16 37  1  0  0  0  0
 16 38  1  0  0  0  0
 17 39  1  0  0  0  0
 17 40  1  0  0  0  0
 17 41  1  0  0  0  0
M  END
> <PUBCHEM_COMPOUND_CID>
14657303

> <PUBCHEM_CONFORMER_RMSD>
0.6

> <PUBCHEM_CONFORMER_DIVERSEORDER>
3
10
15
13
2
16
7
5
12
17
14
1
6
4
9
8
11

> <PUBCHEM_MMFF94_PARTIAL_CHARGES>
13
1 -0.56
11 0.14
12 0.45
13 -0.29
14 -0.28
17 0.14
2 -0.57
3 0.28
32 0.15
5 0.06
7 0.28
8 0.14
9 0.06

> <PUBCHEM_EFFECTIVE_ROTOR_COUNT>
2.8

> <PUBCHEM_PHARMACOPHORE_FEATURES>
5
1 1 acceptor
1 2 acceptor
3 7 15 16 hydrophobe
6 1 3 5 7 9 12 rings
6 4 6 8 11 13 14 rings

> <PUBCHEM_HEAVY_ATOM_COUNT>
17

> <PUBCHEM_ATOM_DEF_STEREO_COUNT>
0

> <PUBCHEM_ATOM_UDEF_STEREO_COUNT>
2

> <PUBCHEM_BOND_DEF_STEREO_COUNT>
0

> <PUBCHEM_BOND_UDEF_STEREO_COUNT>
0

> <PUBCHEM_ISOTOPIC_ATOM_COUNT>
0

> <PUBCHEM_COMPONENT_COUNT>
1

> <PUBCHEM_CACTVS_TAUTO_COUNT>
3

> <PUBCHEM_CONFORMER_ID>
00DFA71700000003

> <PUBCHEM_MMFF94_ENERGY>
44.6538

> <PUBCHEM_FEATURE_SELFOVERLAP>
25.371

> <PUBCHEM_SHAPE_FINGERPRINT>
11315181 36 17894916278458663532
11640471 11 17823690867771343081
12173636 292 18056197977811605317
12186901 62 18343582927819988806
12236239 1 17894910724016267542
12491281 212 18337111159545368432
12507557 5 16008753554162393820
12670546 56 18040988554044936808
13024252 1 17530971301955380259
13296908 3 16702299057476220410
13583140 156 17700942567042431018
13675066 3 13695871446064726580
14142880 1 18187933807409682181
14614273 12 18188203196358224381
15219456 202 17274816991147171426
15309172 13 15936411126256456954
15534591 1 18188216394328650721
15775835 57 18041841701304937461
16945 1 18412824681701860331
17844478 74 17489586796423932343
18186145 218 17418090997035434466
187816 3 17822568416997565131
19107657 47 15719388434687029492
192875 21 17458610242344189364
19433438 38 17917715695205083918
200 152 16732980959603862003
20300324 65 18409168843824965270
20525323 117 18333454218331233401
20645477 56 18272377416818560921
20645477 70 15482391946094217516
21061003 4 16271926060037561211
21339142 149 18261401048009419811
21501502 16 18337666395790643810
22094290 60 18272370892662771010
22802520 49 17560799870894787305
2306618 200 17846790584752331474
23402539 116 18261392281981467471
23493267 7 17846215497295229922
23557571 272 18201722863931148453
23559900 14 17844532102887782110
25 1 17344916204546822793
305870 269 17241885385118366514
3268164 11 18410003351591280036
6049 1 17632569474596190000
77492 1 17894907412770555754
81228 2 18410295839233435011

> <PUBCHEM_SHAPE_MULTIPOLES>
338.11
7.24
1.78
1.51
7.19
0.56
0.25
0.67
-1.5
-2.39
0.01
0.09
-0.08
-0.69

> <PUBCHEM_SHAPE_SELFOVERLAP>
695.061

> <PUBCHEM_SHAPE_VOLUME>
194.7

> <PUBCHEM_COORDINATE_TYPE>
2
5
10

$$$$
