44560015
  -OEChem-02172602553D

 66 69  0     1  0  0  0  0  0999 V2000
    1.7499   -2.4921    0.3267 O   0  0  0  0  0  0  0  0  0  0  0  0
   -0.5065    0.7045   -0.6037 O   0  0  0  0  0  0  0  0  0  0  0  0
    5.3889   -0.9150    0.1872 O   0  0  0  0  0  0  0  0  0  0  0  0
    1.8928    2.3156   -1.0297 O   0  0  0  0  0  0  0  0  0  0  0  0
   -1.9941   -0.7150    0.4989 O   0  0  0  0  0  0  0  0  0  0  0  0
   -2.6793    2.3430   -1.3797 O   0  0  0  0  0  0  0  0  0  0  0  0
   -5.1933    0.8184   -1.5701 O   0  0  0  0  0  0  0  0  0  0  0  0
   -5.6400   -0.7028    0.8470 O   0  0  0  0  0  0  0  0  0  0  0  0
   -3.1955   -3.2083    0.6683 O   0  0  0  0  0  0  0  0  0  0  0  0
    2.9728   -0.4386    0.4092 C   0  0  1  0  0  0  0  0  0  0  0  0
    1.7131   -0.2520   -0.4543 C   0  0  1  0  0  0  0  0  0  0  0  0
    1.4888   -1.7239   -0.8712 C   0  0  1  0  0  0  0  0  0  0  0  0
    0.5383    0.3893    0.3168 C   0  0  1  0  0  0  0  0  0  0  0  0
    4.1753   -0.7400   -0.5422 C   0  0  2  0  0  0  0  0  0  0  0  0
    3.3040    0.7502    1.3269 C   0  0  0  0  0  0  0  0  0  0  0  0
    2.5875   -1.7030    1.1976 C   0  0  0  0  0  0  0  0  0  0  0  0
    0.9442    1.6641    1.0771 C   0  0  1  0  0  0  0  0  0  0  0  0
    2.5463   -2.1236   -1.9252 C   0  0  0  0  0  0  0  0  0  0  0  0
    2.0944    1.3537    2.0369 C   0  0  0  0  0  0  0  0  0  0  0  0
    3.9707   -1.9977   -1.3914 C   0  0  0  0  0  0  0  0  0  0  0  0
    0.0977   -2.0790   -1.3838 C   0  0  0  0  0  0  0  0  0  0  0  0
    1.2819    2.8378    0.1484 C   0  0  0  0  0  0  0  0  0  0  0  0
   -1.7889    0.6104    0.0155 C   0  0  2  0  0  0  0  0  0  0  0  0
    2.2844    3.7726    0.8169 C   0  0  0  0  0  0  0  0  0  0  0  0
    0.0165    3.5928   -0.2475 C   0  0  0  0  0  0  0  0  0  0  0  0
   -2.8442    0.9688   -1.0307 C   0  0  1  0  0  0  0  0  0  0  0  0
   -4.2581    0.7480   -0.4927 C   0  0  2  0  0  0  0  0  0  0  0  0
   -3.2540   -0.8702    1.1546 C   0  0  1  0  0  0  0  0  0  0  0  0
   -4.3928   -0.6272    0.1613 C   0  0  1  0  0  0  0  0  0  0  0  0
   -3.3006   -2.2809    1.7330 C   0  0  0  0  0  0  0  0  0  0  0  0
    1.8982    0.2739   -1.3921 H   0  0  0  0  0  0  0  0  0  0  0  0
    0.1925   -0.3393    1.0604 H   0  0  0  0  0  0  0  0  0  0  0  0
    4.3209    0.1209   -1.2075 H   0  0  0  0  0  0  0  0  0  0  0  0
    4.0237    0.4300    2.0917 H   0  0  0  0  0  0  0  0  0  0  0  0
    3.8300    1.5019    0.7346 H   0  0  0  0  0  0  0  0  0  0  0  0
    2.0014   -1.4908    2.0963 H   0  0  0  0  0  0  0  0  0  0  0  0
    3.4504   -2.3027    1.5038 H   0  0  0  0  0  0  0  0  0  0  0  0
    0.1090    1.9724    1.7199 H   0  0  0  0  0  0  0  0  0  0  0  0
    2.4010   -3.1656   -2.2368 H   0  0  0  0  0  0  0  0  0  0  0  0
    2.4307   -1.5033   -2.8227 H   0  0  0  0  0  0  0  0  0  0  0  0
    2.3928    2.2023    2.6598 H   0  0  0  0  0  0  0  0  0  0  0  0
    1.7279    0.6214    2.7692 H   0  0  0  0  0  0  0  0  0  0  0  0
    4.6869   -2.0095   -2.2223 H   0  0  0  0  0  0  0  0  0  0  0  0
    4.2163   -2.8887   -0.7979 H   0  0  0  0  0  0  0  0  0  0  0  0
   -0.6136   -2.1773   -0.5665 H   0  0  0  0  0  0  0  0  0  0  0  0
    0.1054   -3.0706   -1.8533 H   0  0  0  0  0  0  0  0  0  0  0  0
   -0.2626   -1.3686   -2.1327 H   0  0  0  0  0  0  0  0  0  0  0  0
    6.1026   -1.0553   -0.4582 H   0  0  0  0  0  0  0  0  0  0  0  0
   -1.8334    1.3198    0.8512 H   0  0  0  0  0  0  0  0  0  0  0  0
    1.9189    4.1470    1.7796 H   0  0  0  0  0  0  0  0  0  0  0  0
    3.2976    3.3880    0.9255 H   0  0  0  0  0  0  0  0  0  0  0  0
    2.4255    4.6594    0.1832 H   0  0  0  0  0  0  0  0  0  0  0  0
    0.2689    4.5899   -0.6297 H   0  0  0  0  0  0  0  0  0  0  0  0
   -0.4849    3.1070   -1.0828 H   0  0  0  0  0  0  0  0  0  0  0  0
   -0.6761    3.7357    0.5869 H   0  0  0  0  0  0  0  0  0  0  0  0
    2.0945    3.0621   -1.6195 H   0  0  0  0  0  0  0  0  0  0  0  0
   -2.6862    0.3885   -1.9475 H   0  0  0  0  0  0  0  0  0  0  0  0
   -4.5398    1.5426    0.2082 H   0  0  0  0  0  0  0  0  0  0  0  0
   -3.3140   -0.1644    1.9936 H   0  0  0  0  0  0  0  0  0  0  0  0
   -4.4044   -1.3951   -0.6212 H   0  0  0  0  0  0  0  0  0  0  0  0
   -2.8631    2.8782   -0.5889 H   0  0  0  0  0  0  0  0  0  0  0  0
   -2.4508   -2.4446    2.4039 H   0  0  0  0  0  0  0  0  0  0  0  0
   -4.2303   -2.4643    2.2799 H   0  0  0  0  0  0  0  0  0  0  0  0
   -4.9560    0.1371   -2.2221 H   0  0  0  0  0  0  0  0  0  0  0  0
   -5.6405   -0.0263    1.5455 H   0  0  0  0  0  0  0  0  0  0  0  0
   -3.2169   -4.0981    1.0597 H   0  0  0  0  0  0  0  0  0  0  0  0
  1 12  1  0  0  0  0
  1 16  1  0  0  0  0
  2 13  1  0  0  0  0
  2 23  1  0  0  0  0
  3 14  1  0  0  0  0
  3 48  1  0  0  0  0
  4 22  1  0  0  0  0
  4 56  1  0  0  0  0
  5 23  1  0  0  0  0
  5 28  1  0  0  0  0
  6 26  1  0  0  0  0
  6 61  1  0  0  0  0
  7 27  1  0  0  0  0
  7 64  1  0  0  0  0
  8 29  1  0  0  0  0
  8 65  1  0  0  0  0
  9 30  1  0  0  0  0
  9 66  1  0  0  0  0
 10 11  1  0  0  0  0
 10 14  1  0  0  0  0
 10 15  1  0  0  0  0
 10 16  1  0  0  0  0
 11 12  1  0  0  0  0
 11 13  1  0  0  0  0
 11 31  1  0  0  0  0
 12 18  1  0  0  0  0
 12 21  1  0  0  0  0
 13 17  1  0  0  0  0
 13 32  1  0  0  0  0
 14 20  1  0  0  0  0
 14 33  1  0  0  0  0
 15 19  1  0  0  0  0
 15 34  1  0  0  0  0
 15 35  1  0  0  0  0
 16 36  1  0  0  0  0
 16 37  1  0  0  0  0
 17 19  1  0  0  0  0
 17 22  1  0  0  0  0
 17 38  1  0  0  0  0
 18 20  1  0  0  0  0
 18 39  1  0  0  0  0
 18 40  1  0  0  0  0
 19 41  1  0  0  0  0
 19 42  1  0  0  0  0
 20 43  1  0  0  0  0
 20 44  1  0  0  0  0
 21 45  1  0  0  0  0
 21 46  1  0  0  0  0
 21 47  1  0  0  0  0
 22 24  1  0  0  0  0
 22 25  1  0  0  0  0
 23 26  1  0  0  0  0
 23 49  1  0  0  0  0
 24 50  1  0  0  0  0
 24 51  1  0  0  0  0
 24 52  1  0  0  0  0
 25 53  1  0  0  0  0
 25 54  1  0  0  0  0
 25 55  1  0  0  0  0
 26 27  1  0  0  0  0
 26 57  1  0  0  0  0
 27 29  1  0  0  0  0
 27 58  1  0  0  0  0
 28 29  1  0  0  0  0
 28 30  1  0  0  0  0
 28 59  1  0  0  0  0
 29 60  1  0  0  0  0
 30 62  1  0  0  0  0
 30 63  1  0  0  0  0
M  END
> <PUBCHEM_COMPOUND_CID>
44560015

> <PUBCHEM_CONFORMER_RMSD>
0.8

> <PUBCHEM_CONFORMER_DIVERSEORDER>
2
6
4
10
5
8
11
7
9
1
3

> <PUBCHEM_MMFF94_PARTIAL_CHARGES>
26
1 -0.56
12 0.28
13 0.28
14 0.28
16 0.28
2 -0.56
22 0.28
23 0.56
26 0.28
27 0.28
28 0.28
29 0.28
3 -0.68
30 0.28
4 -0.68
48 0.4
5 -0.56
56 0.4
6 -0.68
61 0.4
64 0.4
65 0.4
66 0.4
7 -0.68
8 -0.68
9 -0.68

> <PUBCHEM_EFFECTIVE_ROTOR_COUNT>
7

> <PUBCHEM_PHARMACOPHORE_FEATURES>
19
1 1 acceptor
1 2 acceptor
1 3 acceptor
1 3 donor
1 4 acceptor
1 4 donor
1 5 acceptor
1 6 acceptor
1 6 donor
1 7 acceptor
1 7 donor
1 8 acceptor
1 8 donor
1 9 acceptor
1 9 donor
3 22 24 25 hydrophobe
6 10 11 13 15 17 19 rings
6 5 23 26 27 28 29 rings
8 1 10 11 12 14 16 18 20 rings

> <PUBCHEM_HEAVY_ATOM_COUNT>
30

> <PUBCHEM_ATOM_DEF_STEREO_COUNT>
11

> <PUBCHEM_ATOM_UDEF_STEREO_COUNT>
0

> <PUBCHEM_BOND_DEF_STEREO_COUNT>
0

> <PUBCHEM_BOND_UDEF_STEREO_COUNT>
0

> <PUBCHEM_ISOTOPIC_ATOM_COUNT>
0

> <PUBCHEM_COMPONENT_COUNT>
1

> <PUBCHEM_CACTVS_TAUTO_COUNT>
1

> <PUBCHEM_CONFORMER_ID>
02A7EE8F00000002

> <PUBCHEM_MMFF94_ENERGY>
128.302

> <PUBCHEM_FEATURE_SELFOVERLAP>
96.519

> <PUBCHEM_SHAPE_FINGERPRINT>
10165383 225 17551530154644225625
10366900 7 18339073800896866447
10675989 125 17182204834461030548
11578080 2 17241310499535414799
12035758 1 18272638066094725370
12236239 1 15626218000839386055
12422481 6 18124852785609944224
12553582 1 18266188231521577595
12633257 1 18338248123752267419
12707595 3 18411704253114107783
12788726 201 17762621694114930224
13140716 1 18268708492392365371
13224815 77 18271527623474493647
13402501 40 18410573955519456719
13464513 79 18342739611461079838
13533116 47 18200881785677183355
13544653 18 17845373262919764020
13583140 156 17970039266989536611
14223421 5 18264488567160463507
14787075 74 18188224207623391070
14790565 3 17547575241864096320
14955137 171 18201729483103401520
15635459 17 18342173323912056523
1601671 61 18273497862417436054
17349148 13 16487253287982300751
17357779 13 18128811950265394036
17492 54 18337689585110281508
17913733 40 17913488214371906568
1813 80 17488763176484317724
20511986 3 15719392845513253407
20645477 70 18342734156704823461
21033648 29 17702647883205589985
21033650 10 17097791057941299652
22182313 1 18127388108889002808
23557571 272 18336265622334842228
23559900 14 18186800314000296525
3493558 16 16736105870692836372
3737641 26 17200808700500087846
3886686 26 16823317608653984378
508706 21 18333723629209416727
5895379 119 14275385489933588087
6669772 16 17983588682740856244
6823239 73 18334858341771654192
70251023 43 17269194952061517999
81228 2 17695068799268813192
9709674 26 18337104670356192547

> <PUBCHEM_SHAPE_MULTIPOLES>
564.56
9.21
3.87
1.65
8.01
2.2
-0.08
-3.58
0.01
-1.64
0.11
0.08
-0.35
2.58

> <PUBCHEM_SHAPE_SELFOVERLAP>
1201.634

> <PUBCHEM_SHAPE_VOLUME>
309.8

> <PUBCHEM_COORDINATE_TYPE>
2
5
10

$$$$
