5493036
  -OEChem-02172602473D

 46 50  0     1  0  0  0  0  0999 V2000
    1.1789    1.3194    1.0180 O   0  0  0  0  0  0  0  0  0  0  0  0
   -0.6840    3.9935    0.2099 O   0  0  0  0  0  0  0  0  0  0  0  0
    3.6795    0.1307    0.0873 O   0  0  0  0  0  0  0  0  0  0  0  0
   -2.9917   -1.7930    0.5850 N   0  0  1  0  0  0  0  0  0  0  0  0
   -1.0173    0.3984    0.6117 C   0  0  1  0  0  0  0  0  0  0  0  0
   -2.2621    0.4574   -0.2765 C   0  0  2  0  0  0  0  0  0  0  0  0
   -2.6257   -1.0189   -0.6315 C   0  0  1  0  0  0  0  0  0  0  0  0
   -0.2377    1.7084    0.8426 C   0  0  2  0  0  0  0  0  0  0  0  0
   -1.3885   -0.3342    1.9190 C   0  0  0  0  0  0  0  0  0  0  0  0
    0.0720   -0.3446   -0.0828 C   0  0  0  0  0  0  0  0  0  0  0  0
   -1.4803   -1.7582   -1.4095 C   0  0  0  0  0  0  0  0  0  0  0  0
   -1.9822   -1.7305    1.6540 C   0  0  0  0  0  0  0  0  0  0  0  0
   -0.0877   -1.3825   -0.9805 C   0  0  0  0  0  0  0  0  0  0  0  0
   -0.3000    2.7259   -0.3295 C   0  0  1  0  0  0  0  0  0  0  0  0
   -2.0927    1.3656   -1.4610 C   0  0  0  0  0  0  0  0  0  0  0  0
    1.3003    0.1892    0.2456 C   0  0  0  0  0  0  0  0  0  0  0  0
   -1.2267    2.3874   -1.4640 C   0  0  0  0  0  0  0  0  0  0  0  0
    1.0763   -1.9560   -1.4921 C   0  0  0  0  0  0  0  0  0  0  0  0
   -4.3185   -1.4391    1.0899 C   0  0  0  0  0  0  0  0  0  0  0  0
    2.4621   -0.3700   -0.2349 C   0  0  0  0  0  0  0  0  0  0  0  0
    2.3413   -1.4624   -1.1059 C   0  0  0  0  0  0  0  0  0  0  0  0
    4.7809   -0.7804    0.0977 C   0  0  0  0  0  0  0  0  0  0  0  0
    5.8038   -0.3062    1.1078 C   0  0  0  0  0  0  0  0  0  0  0  0
   -3.0923    0.9004    0.2901 H   0  0  0  0  0  0  0  0  0  0  0  0
   -3.4955   -1.0282   -1.3029 H   0  0  0  0  0  0  0  0  0  0  0  0
   -0.5464    2.1849    1.7813 H   0  0  0  0  0  0  0  0  0  0  0  0
   -2.1203    0.2687    2.4724 H   0  0  0  0  0  0  0  0  0  0  0  0
   -0.5166   -0.4432    2.5768 H   0  0  0  0  0  0  0  0  0  0  0  0
   -1.5752   -1.4987   -2.4723 H   0  0  0  0  0  0  0  0  0  0  0  0
   -1.6124   -2.8449   -1.3362 H   0  0  0  0  0  0  0  0  0  0  0  0
   -1.1698   -2.4208    1.3956 H   0  0  0  0  0  0  0  0  0  0  0  0
   -2.3869   -2.1341    2.5913 H   0  0  0  0  0  0  0  0  0  0  0  0
    0.7015    2.8714   -0.7511 H   0  0  0  0  0  0  0  0  0  0  0  0
   -2.7436    1.2217   -2.3185 H   0  0  0  0  0  0  0  0  0  0  0  0
   -1.1855    3.0290   -2.3406 H   0  0  0  0  0  0  0  0  0  0  0  0
    1.0179   -2.7723   -2.2072 H   0  0  0  0  0  0  0  0  0  0  0  0
   -4.3660   -0.4281    1.5059 H   0  0  0  0  0  0  0  0  0  0  0  0
   -4.6229   -2.1398    1.8757 H   0  0  0  0  0  0  0  0  0  0  0  0
   -5.0712   -1.5229    0.2981 H   0  0  0  0  0  0  0  0  0  0  0  0
    3.2126   -1.9321   -1.5556 H   0  0  0  0  0  0  0  0  0  0  0  0
   -1.5798    3.9022    0.5783 H   0  0  0  0  0  0  0  0  0  0  0  0
    4.4690   -1.7905    0.3913 H   0  0  0  0  0  0  0  0  0  0  0  0
    5.2298   -0.8110   -0.9011 H   0  0  0  0  0  0  0  0  0  0  0  0
    6.6676   -0.9765    1.1350 H   0  0  0  0  0  0  0  0  0  0  0  0
    6.1484    0.7038    0.8622 H   0  0  0  0  0  0  0  0  0  0  0  0
    5.3629   -0.2568    2.1090 H   0  0  0  0  0  0  0  0  0  0  0  0
  1  8  1  0  0  0  0
  1 16  1  0  0  0  0
  2 14  1  0  0  0  0
  2 41  1  0  0  0  0
  3 20  1  0  0  0  0
  3 22  1  0  0  0  0
  4  7  1  0  0  0  0
  4 12  1  0  0  0  0
  4 19  1  0  0  0  0
  5  6  1  0  0  0  0
  5  8  1  0  0  0  0
  5  9  1  0  0  0  0
  5 10  1  0  0  0  0
  6  7  1  0  0  0  0
  6 15  1  0  0  0  0
  6 24  1  0  0  0  0
  7 11  1  0  0  0  0
  7 25  1  0  0  0  0
  8 14  1  0  0  0  0
  8 26  1  0  0  0  0
  9 12  1  0  0  0  0
  9 27  1  0  0  0  0
  9 28  1  0  0  0  0
 10 13  2  0  0  0  0
 10 16  1  0  0  0  0
 11 13  1  0  0  0  0
 11 29  1  0  0  0  0
 11 30  1  0  0  0  0
 12 31  1  0  0  0  0
 12 32  1  0  0  0  0
 13 18  1  0  0  0  0
 14 17  1  0  0  0  0
 14 33  1  0  0  0  0
 15 17  2  0  0  0  0
 15 34  1  0  0  0  0
 16 20  2  0  0  0  0
 17 35  1  0  0  0  0
 18 21  2  0  0  0  0
 18 36  1  0  0  0  0
 19 37  1  0  0  0  0
 19 38  1  0  0  0  0
 19 39  1  0  0  0  0
 20 21  1  0  0  0  0
 21 40  1  0  0  0  0
 22 23  1  0  0  0  0
 22 42  1  0  0  0  0
 22 43  1  0  0  0  0
 23 44  1  0  0  0  0
 23 45  1  0  0  0  0
 23 46  1  0  0  0  0
M  END
> <PUBCHEM_COMPOUND_CID>
5493036

> <PUBCHEM_CONFORMER_RMSD>
0.6

> <PUBCHEM_CONFORMER_DIVERSEORDER>
1
3
2
4
5

> <PUBCHEM_MMFF94_PARTIAL_CHARGES>
26
1 -0.36
10 -0.14
11 0.14
12 0.27
13 -0.14
14 0.42
15 -0.29
16 0.08
17 -0.29
18 -0.15
19 0.27
2 -0.68
20 0.08
21 -0.15
22 0.28
3 -0.36
34 0.15
35 0.15
36 0.15
4 -0.81
40 0.15
41 0.4
5 0.14
6 0.14
7 0.27
8 0.28

> <PUBCHEM_EFFECTIVE_ROTOR_COUNT>
3.2

> <PUBCHEM_PHARMACOPHORE_FEATURES>
10
1 1 acceptor
1 2 acceptor
1 2 donor
1 3 acceptor
1 4 cation
5 1 5 8 10 16 rings
6 10 13 16 18 20 21 rings
6 4 5 6 7 9 12 rings
6 5 6 7 10 11 13 rings
6 5 6 8 14 15 17 rings

> <PUBCHEM_HEAVY_ATOM_COUNT>
23

> <PUBCHEM_ATOM_DEF_STEREO_COUNT>
5

> <PUBCHEM_ATOM_UDEF_STEREO_COUNT>
0

> <PUBCHEM_BOND_DEF_STEREO_COUNT>
0

> <PUBCHEM_BOND_UDEF_STEREO_COUNT>
0

> <PUBCHEM_ISOTOPIC_ATOM_COUNT>
0

> <PUBCHEM_COMPONENT_COUNT>
1

> <PUBCHEM_CACTVS_TAUTO_COUNT>
1

> <PUBCHEM_CONFORMER_ID>
0053D12C00000001

> <PUBCHEM_MMFF94_ENERGY>
82.9853

> <PUBCHEM_FEATURE_SELFOVERLAP>
52.927

> <PUBCHEM_SHAPE_FINGERPRINT>
10863032 1 17678165006282104487
10948715 1 17764306137412718541
11132069 177 17918275368140779702
11315181 36 17167858665473093978
12035758 1 18337684031511657657
12403814 3 18341891913459880798
12423570 1 17620159441720237353
12788726 201 18042141928124381380
13140716 1 17843680204208139698
13583140 156 18261943069341575354
14142880 1 18059018280659923273
14181834 199 17908717459515317783
14223421 5 18197223555393299390
15099037 37 18409729534973754874
16945 1 18120375346021393133
17357779 13 18341322362463388535
1813 80 18267882720489440815
20600515 1 18042143062296648943
21029758 27 18339086007056687110
21304303 282 17536279601928151228
21623110 236 17558816524307847904
22182313 1 18058456404891424742
2306618 200 18131345280927047690
23402539 116 18040428880492257471
23419403 2 16124105569120522175
23493267 7 18189605069167131784
23557571 272 18335995172618119926
23559900 14 17822566205374036608
2748010 2 18198603588019076589
3380486 145 18343865519847288991
5845 1 8060235223523722261
6442390 28 17616833037016262937
81228 2 18044685029952983465
9981440 41 17982992480738710962

> <PUBCHEM_SHAPE_MULTIPOLES>
450.74
6.74
2.95
1.62
10.38
2.81
0.08
-3.25
2.36
-1.84
-0.48
-0.63
-0.4
1.13

> <PUBCHEM_SHAPE_SELFOVERLAP>
1006.633

> <PUBCHEM_SHAPE_VOLUME>
237.5

> <PUBCHEM_COORDINATE_TYPE>
2
5
10

$$$$
