605542
  -OEChem-02172602293D

 45 50  0     1  0  0  0  0  0999 V2000
   -0.6509    0.5507    2.1311 O   0  0  0  0  0  0  0  0  0  0  0  0
   -3.5146   -0.4771    1.6616 O   0  0  0  0  0  0  0  0  0  0  0  0
   -4.8394   -1.5269   -0.0567 O   0  0  0  0  0  0  0  0  0  0  0  0
    1.9485   -3.2000    0.2696 O   0  0  0  0  0  0  0  0  0  0  0  0
    4.2402   -2.5493   -0.0835 O   0  0  0  0  0  0  0  0  0  0  0  0
    0.8184    2.9024    0.2370 N   0  0  2  0  0  0  0  0  0  0  0  0
    0.2665    1.5333   -0.0003 C   0  0  1  0  0  0  0  0  0  0  0  0
   -0.9709    1.2651    0.9521 C   0  0  1  0  0  0  0  0  0  0  0  0
   -0.3997    1.5317   -1.4343 C   0  0  0  0  0  0  0  0  0  0  0  0
    1.3706    0.4419    0.0067 C   0  0  0  0  0  0  0  0  0  0  0  0
   -1.9257    0.5050    0.0843 C   0  0  0  0  0  0  0  0  0  0  0  0
   -1.5996    0.6493   -1.2671 C   0  0  0  0  0  0  0  0  0  0  0  0
    1.9639    3.1840   -0.6371 C   0  0  0  0  0  0  0  0  0  0  0  0
    2.7296    0.8071   -0.2240 C   0  0  0  0  0  0  0  0  0  0  0  0
    3.1410    2.2485   -0.3877 C   0  0  0  0  0  0  0  0  0  0  0  0
    1.1311    3.2128    1.6337 C   0  0  0  0  0  0  0  0  0  0  0  0
   -3.0306   -0.2355    0.4170 C   0  0  0  0  0  0  0  0  0  0  0  0
    1.0667   -0.9258    0.1679 C   0  0  0  0  0  0  0  0  0  0  0  0
   -2.3649    0.0585   -2.2733 C   0  0  0  0  0  0  0  0  0  0  0  0
    3.7456   -0.1671   -0.2540 C   0  0  0  0  0  0  0  0  0  0  0  0
   -3.7861   -0.8308   -0.5687 C   0  0  0  0  0  0  0  0  0  0  0  0
    2.0894   -1.8535    0.1250 C   0  0  0  0  0  0  0  0  0  0  0  0
    3.3932   -1.4852   -0.0784 C   0  0  0  0  0  0  0  0  0  0  0  0
   -3.4805   -0.7049   -1.9159 C   0  0  0  0  0  0  0  0  0  0  0  0
   -4.6591   -1.2995    1.3563 C   0  0  0  0  0  0  0  0  0  0  0  0
    3.3172   -3.6348    0.1387 C   0  0  0  0  0  0  0  0  0  0  0  0
   -1.4772    2.1988    1.2287 H   0  0  0  0  0  0  0  0  0  0  0  0
    0.2698    1.1582   -2.2171 H   0  0  0  0  0  0  0  0  0  0  0  0
   -0.7592    2.5299   -1.7158 H   0  0  0  0  0  0  0  0  0  0  0  0
    2.2888    4.2254   -0.5164 H   0  0  0  0  0  0  0  0  0  0  0  0
    1.6568    3.1116   -1.6878 H   0  0  0  0  0  0  0  0  0  0  0  0
    3.6762    2.5572    0.5192 H   0  0  0  0  0  0  0  0  0  0  0  0
    3.8417    2.3378   -1.2270 H   0  0  0  0  0  0  0  0  0  0  0  0
    1.8100    2.4874    2.0937 H   0  0  0  0  0  0  0  0  0  0  0  0
    0.2232    3.2696    2.2414 H   0  0  0  0  0  0  0  0  0  0  0  0
    1.5929    4.2040    1.7140 H   0  0  0  0  0  0  0  0  0  0  0  0
    0.0548   -1.2802    0.3215 H   0  0  0  0  0  0  0  0  0  0  0  0
   -2.1031    0.1892   -3.3184 H   0  0  0  0  0  0  0  0  0  0  0  0
    0.0296    1.0481    2.6124 H   0  0  0  0  0  0  0  0  0  0  0  0
    4.7827    0.1121   -0.4117 H   0  0  0  0  0  0  0  0  0  0  0  0
   -4.0923   -1.1777   -2.6765 H   0  0  0  0  0  0  0  0  0  0  0  0
   -5.5576   -0.8107    1.7502 H   0  0  0  0  0  0  0  0  0  0  0  0
   -4.5382   -2.2682    1.8548 H   0  0  0  0  0  0  0  0  0  0  0  0
    3.3851   -4.3317   -0.7045 H   0  0  0  0  0  0  0  0  0  0  0  0
    3.6078   -4.1611    1.0552 H   0  0  0  0  0  0  0  0  0  0  0  0
  1  8  1  0  0  0  0
  1 39  1  0  0  0  0
  2 17  1  0  0  0  0
  2 25  1  0  0  0  0
  3 21  1  0  0  0  0
  3 25  1  0  0  0  0
  4 22  1  0  0  0  0
  4 26  1  0  0  0  0
  5 23  1  0  0  0  0
  5 26  1  0  0  0  0
  6  7  1  0  0  0  0
  6 13  1  0  0  0  0
  6 16  1  0  0  0  0
  7  8  1  0  0  0  0
  7  9  1  0  0  0  0
  7 10  1  0  0  0  0
  8 11  1  0  0  0  0
  8 27  1  0  0  0  0
  9 12  1  0  0  0  0
  9 28  1  0  0  0  0
  9 29  1  0  0  0  0
 10 14  1  0  0  0  0
 10 18  2  0  0  0  0
 11 12  2  0  0  0  0
 11 17  1  0  0  0  0
 12 19  1  0  0  0  0
 13 15  1  0  0  0  0
 13 30  1  0  0  0  0
 13 31  1  0  0  0  0
 14 15  1  0  0  0  0
 14 20  2  0  0  0  0
 15 32  1  0  0  0  0
 15 33  1  0  0  0  0
 16 34  1  0  0  0  0
 16 35  1  0  0  0  0
 16 36  1  0  0  0  0
 17 21  2  0  0  0  0
 18 22  1  0  0  0  0
 18 37  1  0  0  0  0
 19 24  2  0  0  0  0
 19 38  1  0  0  0  0
 20 23  1  0  0  0  0
 20 40  1  0  0  0  0
 21 24  1  0  0  0  0
 22 23  2  0  0  0  0
 24 41  1  0  0  0  0
 25 42  1  0  0  0  0
 25 43  1  0  0  0  0
 26 44  1  0  0  0  0
 26 45  1  0  0  0  0
M  END
> <PUBCHEM_COMPOUND_CID>
605542

> <PUBCHEM_CONFORMER_RMSD>
0.6

> <PUBCHEM_CONFORMER_DIVERSEORDER>
1
9
6
3
8
7
2
5
4

> <PUBCHEM_MMFF94_PARTIAL_CHARGES>
31
1 -0.68
10 -0.14
11 -0.14
12 -0.14
13 0.27
14 -0.14
15 0.14
16 0.27
17 0.08
18 -0.15
19 -0.15
2 -0.36
20 -0.15
21 0.08
22 0.08
23 0.08
24 -0.15
25 0.56
26 0.56
3 -0.36
37 0.15
38 0.15
39 0.4
4 -0.36
40 0.15
41 0.15
5 -0.36
6 -0.81
7 0.41
8 0.42
9 0.14

> <PUBCHEM_EFFECTIVE_ROTOR_COUNT>
2.2

> <PUBCHEM_PHARMACOPHORE_FEATURES>
13
1 1 acceptor
1 1 donor
1 2 acceptor
1 3 acceptor
1 4 acceptor
1 5 acceptor
1 6 cation
5 2 3 17 21 25 rings
5 4 5 22 23 26 rings
5 7 8 9 11 12 rings
6 10 14 18 20 22 23 rings
6 11 12 17 19 21 24 rings
6 6 7 10 13 14 15 rings

> <PUBCHEM_HEAVY_ATOM_COUNT>
26

> <PUBCHEM_ATOM_DEF_STEREO_COUNT>
0

> <PUBCHEM_ATOM_UDEF_STEREO_COUNT>
2

> <PUBCHEM_BOND_DEF_STEREO_COUNT>
0

> <PUBCHEM_BOND_UDEF_STEREO_COUNT>
0

> <PUBCHEM_ISOTOPIC_ATOM_COUNT>
0

> <PUBCHEM_COMPONENT_COUNT>
1

> <PUBCHEM_CACTVS_TAUTO_COUNT>
1

> <PUBCHEM_CONFORMER_ID>
00093D6600000001

> <PUBCHEM_MMFF94_ENERGY>
86.4747

> <PUBCHEM_FEATURE_SELFOVERLAP>
66.381

> <PUBCHEM_SHAPE_FINGERPRINT>
10064457 181 17834686267543064945
10165383 225 17902526109313243860
1100329 8 18197217169045364280
11582403 64 16166861204317523797
12107183 9 18125173645447133217
12156800 1 8268117266931024958
12236239 1 17631464521276835765
12506688 2 18409730651195883350
12553582 1 18342174419387290606
12788726 201 17546708370949007089
13004483 165 17980750550305898891
13140716 1 17981036732830575128
13533116 47 18341051938912653931
13544653 18 18409730625415601599
13583140 156 18128544945645466009
13911987 19 17972898113713964276
14659021 117 17108453993128419762
14767858 380 18263384555077264878
14787075 74 17487608852642497176
15375462 189 18131633421629678561
16945 1 18268699670524556861
17138139 8 17051872510239417471
1813 80 18130234765403227134
20291156 8 18270678658495008446
20645477 70 18261662783574913807
21033650 10 15719672039608732389
21421861 104 18128280963648227433
22112679 90 17203325658619937757
221490 88 18334012753216725062
23559900 14 18259977193558261669
23598288 3 17845097272553357065
23728640 28 16824735969493459898
238 59 18189318221123004508
3323516 105 18187081793039488815
392239 28 17630860834122822842
458136 41 18120941856255166300
46194498 28 17604149336854306495
474 4 17339836787461095865
5486654 36 18264216807241631467
59682541 52 18195497442929071599
70251023 43 18267563802663148431
7097593 13 18272941509428318841
7970288 3 18340770321364064638
81228 2 17547271325408496248
9981440 41 15258881371106198992

> <PUBCHEM_SHAPE_MULTIPOLES>
500.74
7.94
3.73
1.6
5
0.48
-0.09
5.81
0.06
-5.23
0.6
1.8
-0.45
0.15

> <PUBCHEM_SHAPE_SELFOVERLAP>
1146.567

> <PUBCHEM_SHAPE_VOLUME>
260

> <PUBCHEM_COORDINATE_TYPE>
2
5
10

$$$$
