147806
  -OEChem-02172602273D

 30 32  0     1  0  0  0  0  0999 V2000
   -0.2182    1.0219   -0.0264 O   0  0  0  0  0  0  0  0  0  0  0  0
    0.7674   -2.5259    0.0640 O   0  0  0  0  0  0  0  0  0  0  0  0
   -1.9223   -2.7003    0.2615 O   0  0  0  0  0  0  0  0  0  0  0  0
    0.5134   -0.1629   -0.3790 C   0  0  2  0  0  0  0  0  0  0  0  0
    0.0735   -1.3583    0.4678 C   0  0  1  0  0  0  0  0  0  0  0  0
    1.9870    0.1462   -0.1927 C   0  0  0  0  0  0  0  0  0  0  0  0
   -1.4059   -1.5891    0.2499 C   0  0  0  0  0  0  0  0  0  0  0  0
   -2.2186   -0.3724    0.0552 C   0  0  0  0  0  0  0  0  0  0  0  0
   -1.5781    0.8640   -0.0551 C   0  0  0  0  0  0  0  0  0  0  0  0
    2.3902    1.0333    0.8034 C   0  0  0  0  0  0  0  0  0  0  0  0
    2.9332   -0.4576   -1.0184 C   0  0  0  0  0  0  0  0  0  0  0  0
   -3.6131   -0.4523    0.0112 C   0  0  0  0  0  0  0  0  0  0  0  0
   -2.3382    2.0285   -0.1752 C   0  0  0  0  0  0  0  0  0  0  0  0
   -4.3664    0.7137   -0.1272 C   0  0  0  0  0  0  0  0  0  0  0  0
   -3.7307    1.9522   -0.2154 C   0  0  0  0  0  0  0  0  0  0  0  0
    3.7451    1.3178    0.9745 C   0  0  0  0  0  0  0  0  0  0  0  0
    4.2880   -0.1732   -0.8474 C   0  0  0  0  0  0  0  0  0  0  0  0
    4.6938    0.7146    0.1492 C   0  0  0  0  0  0  0  0  0  0  0  0
    0.3428   -0.3554   -1.4489 H   0  0  0  0  0  0  0  0  0  0  0  0
    0.2430   -1.1868    1.5376 H   0  0  0  0  0  0  0  0  0  0  0  0
    1.6743    1.5057    1.4703 H   0  0  0  0  0  0  0  0  0  0  0  0
    2.6300   -1.1503   -1.7988 H   0  0  0  0  0  0  0  0  0  0  0  0
   -4.1277   -1.4055    0.0936 H   0  0  0  0  0  0  0  0  0  0  0  0
   -1.8530    2.9984   -0.2474 H   0  0  0  0  0  0  0  0  0  0  0  0
    0.5186   -3.2406    0.6748 H   0  0  0  0  0  0  0  0  0  0  0  0
   -5.4508    0.6578   -0.1586 H   0  0  0  0  0  0  0  0  0  0  0  0
   -4.3208    2.8585   -0.3164 H   0  0  0  0  0  0  0  0  0  0  0  0
    4.0617    2.0061    1.7527 H   0  0  0  0  0  0  0  0  0  0  0  0
    5.0270   -0.6429   -1.4899 H   0  0  0  0  0  0  0  0  0  0  0  0
    5.7487    0.9353    0.2829 H   0  0  0  0  0  0  0  0  0  0  0  0
  1  4  1  0  0  0  0
  1  9  1  0  0  0  0
  2  5  1  0  0  0  0
  2 25  1  0  0  0  0
  3  7  2  0  0  0  0
  4  5  1  0  0  0  0
  4  6  1  0  0  0  0
  4 19  1  0  0  0  0
  5  7  1  0  0  0  0
  5 20  1  0  0  0  0
  6 10  2  0  0  0  0
  6 11  1  0  0  0  0
  7  8  1  0  0  0  0
  8  9  1  0  0  0  0
  8 12  2  0  0  0  0
  9 13  2  0  0  0  0
 10 16  1  0  0  0  0
 10 21  1  0  0  0  0
 11 17  2  0  0  0  0
 11 22  1  0  0  0  0
 12 14  1  0  0  0  0
 12 23  1  0  0  0  0
 13 15  1  0  0  0  0
 13 24  1  0  0  0  0
 14 15  2  0  0  0  0
 14 26  1  0  0  0  0
 15 27  1  0  0  0  0
 16 18  2  0  0  0  0
 16 28  1  0  0  0  0
 17 18  1  0  0  0  0
 17 29  1  0  0  0  0
 18 30  1  0  0  0  0
M  END
> <PUBCHEM_COMPOUND_CID>
147806

> <PUBCHEM_CONFORMER_RMSD>
0.6

> <PUBCHEM_CONFORMER_DIVERSEORDER>
1
4
3
2
5
6

> <PUBCHEM_MMFF94_PARTIAL_CHARGES>
28
1 -0.36
10 -0.15
11 -0.15
12 -0.15
13 -0.15
14 -0.15
15 -0.15
16 -0.15
17 -0.15
18 -0.15
2 -0.68
21 0.15
22 0.15
23 0.15
24 0.15
25 0.4
26 0.15
27 0.15
28 0.15
29 0.15
3 -0.57
30 0.15
4 0.42
5 0.34
6 -0.14
7 0.42
8 0.09
9 0.08

> <PUBCHEM_EFFECTIVE_ROTOR_COUNT>
1.6

> <PUBCHEM_PHARMACOPHORE_FEATURES>
7
1 1 acceptor
1 2 acceptor
1 2 donor
1 3 acceptor
6 1 4 5 7 8 9 rings
6 6 10 11 16 17 18 rings
6 8 9 12 13 14 15 rings

> <PUBCHEM_HEAVY_ATOM_COUNT>
18

> <PUBCHEM_ATOM_DEF_STEREO_COUNT>
0

> <PUBCHEM_ATOM_UDEF_STEREO_COUNT>
2

> <PUBCHEM_BOND_DEF_STEREO_COUNT>
0

> <PUBCHEM_BOND_UDEF_STEREO_COUNT>
0

> <PUBCHEM_ISOTOPIC_ATOM_COUNT>
0

> <PUBCHEM_COMPONENT_COUNT>
1

> <PUBCHEM_CACTVS_TAUTO_COUNT>
4

> <PUBCHEM_CONFORMER_ID>
0002415E00000001

> <PUBCHEM_MMFF94_ENERGY>
49.6229

> <PUBCHEM_FEATURE_SELFOVERLAP>
35.558

> <PUBCHEM_SHAPE_FINGERPRINT>
10319926 262 18267847541430327560
10411042 1 17688593079640617683
10498660 4 18335978671264734325
10608611 8 18270960253973552424
10646746 165 18410855464797746920
11132069 177 18408040731878310669
11543360 7 16630514150938458389
12119455 92 17561081414807122836
12173636 292 18336824183011184733
12236239 1 17240482529104904316
12390115 104 18198639760777228961
12403259 415 18413392029211702072
12403814 3 17095518496419274821
12500047 106 18410291415258851422
12788726 201 17100329035863978842
13140716 1 18119537789060433353
13380535 76 18409166584688335951
13464514 151 18127980706368074400
13544592 145 18342749477095833238
15042514 8 18191030203983820259
15196674 1 18409730621199748983
15219456 202 18130791200265663264
15375358 24 18272651259812213028
15536298 74 18339643313244025695
16945 1 18335704970389267151
18186145 218 18202007594567058968
200 152 16271930402375954672
20279233 1 18273219711734687604
20510252 161 18341615978906456401
20645477 56 18410014346633892652
20645477 70 17203618056035664174
21524375 3 18335138639927513715
22182313 1 18264790812789480215
2334 1 17760089910110338795
23366157 5 17751645342607620650
23402539 116 18412536634913633621
23419403 2 16986303048575651643
23493267 7 17821738225319683035
23557571 272 18270407225046405726
23559900 14 18342179956190446092
25 1 18269836428092607109
2748010 2 17977380861226872683
2838139 119 16009568219654347519
3004659 81 18190472571975326166
350125 39 17974570195446286916
351380 180 18272646848912519884
4028521 119 18341891870573634805
43471831 8 18260544485591880379
495365 180 17489295400552842074
4990 188 18059859428608967116
5104073 3 18263648372825840387
633830 44 18272365343560081500
69090 78 18131630105709321471
7364860 26 18124594189175133606
77492 1 17168141286710038004
84936 182 18125436402202123385
9709674 26 18343587369085425750

> <PUBCHEM_SHAPE_MULTIPOLES>
352.82
8.59
2.23
0.83
3.13
0.95
0.01
-3.51
0.51
-1.46
-0.26
0.63
-0.06
0.81

> <PUBCHEM_SHAPE_SELFOVERLAP>
780.634

> <PUBCHEM_SHAPE_VOLUME>
187.5

> <PUBCHEM_COORDINATE_TYPE>
2
5
10

$$$$
