21577087
  -OEChem-02172602223D

 86 89  0     1  0  0  0  0  0999 V2000
    2.3053   -1.0652   -2.3570 O   0  0  0  0  0  0  0  0  0  0  0  0
    2.2631   -3.5767    0.5491 O   0  0  0  0  0  0  0  0  0  0  0  0
   -2.5623   -1.6694    2.7612 O   0  0  0  0  0  0  0  0  0  0  0  0
    4.6024   -2.7113   -0.2319 O   0  0  0  0  0  0  0  0  0  0  0  0
   -6.5162    1.5942    2.4692 O   0  0  0  0  0  0  0  0  0  0  0  0
   -7.0394    2.6075   -0.0050 O   0  0  0  0  0  0  0  0  0  0  0  0
    6.1330    1.8390    0.8402 O   0  0  0  0  0  0  0  0  0  0  0  0
    6.9341    3.8546    0.0448 O   0  0  0  0  0  0  0  0  0  0  0  0
   -0.8422   -1.1804   -1.0029 C   0  0  2  0  0  0  0  0  0  0  0  0
   -0.1011   -1.7614    0.2559 C   0  0  1  0  0  0  0  0  0  0  0  0
   -2.3506   -1.5769   -0.9232 C   0  0  1  0  0  0  0  0  0  0  0  0
    1.3738   -1.4807   -0.1194 C   0  0  2  0  0  0  0  0  0  0  0  0
   -3.0659   -1.1575    0.4221 C   0  0  1  0  0  0  0  0  0  0  0  0
   -0.0283   -1.8442   -2.1439 C   0  0  0  0  0  0  0  0  0  0  0  0
    1.4285   -1.8957   -1.6136 C   0  0  1  0  0  0  0  0  0  0  0  0
   -0.6318   -1.0633    1.5049 C   0  0  0  0  0  0  0  0  0  0  0  0
   -2.1228   -1.3515    1.6521 C   0  0  0  0  0  0  0  0  0  0  0  0
   -3.5528    0.3447    0.4156 C   0  0  1  0  0  0  0  0  0  0  0  0
   -0.6743    0.3570   -1.2103 C   0  0  0  0  0  0  0  0  0  0  0  0
   -3.1826   -1.1826   -2.1561 C   0  0  0  0  0  0  0  0  0  0  0  0
   -0.2821   -3.3019    0.4758 C   0  0  0  0  0  0  0  0  0  0  0  0
    2.4486   -2.1724    0.7144 C   0  0  1  0  0  0  0  0  0  0  0  0
   -4.2738   -2.1250    0.6026 C   0  0  0  0  0  0  0  0  0  0  0  0
   -4.0910    0.8345   -0.9302 C   0  0  0  0  0  0  0  0  0  0  0  0
   -3.9223    0.1109   -2.0523 C   0  0  0  0  0  0  0  0  0  0  0  0
   -4.8211    2.1857   -0.9100 C   0  0  0  0  0  0  0  0  0  0  0  0
   -4.5350    0.6426    1.5370 C   0  0  0  0  0  0  0  0  0  0  0  0
    2.3040   -1.8417    2.1962 C   0  0  0  0  0  0  0  0  0  0  0  0
    3.8459   -1.8288    0.1793 C   0  0  0  0  0  0  0  0  0  0  0  0
   -5.9349    2.0841    0.1455 C   0  0  0  0  0  0  0  0  0  0  0  0
   -5.6362    1.3939    1.4285 C   0  0  0  0  0  0  0  0  0  0  0  0
    4.2566   -0.3598    0.1627 C   0  0  0  0  0  0  0  0  0  0  0  0
   -3.8598    3.3222   -0.5089 C   0  0  0  0  0  0  0  0  0  0  0  0
   -5.4680    2.5891   -2.2548 C   0  0  0  0  0  0  0  0  0  0  0  0
    5.6588   -0.1572   -0.4234 C   0  0  0  0  0  0  0  0  0  0  0  0
    6.1163    1.3137   -0.4890 C   0  0  0  0  0  0  0  0  0  0  0  0
    5.1832    2.1780   -1.3398 C   0  0  0  0  0  0  0  0  0  0  0  0
    7.5440    1.3839   -1.0407 C   0  0  0  0  0  0  0  0  0  0  0  0
    6.5667    3.1271    0.9575 C   0  0  0  0  0  0  0  0  0  0  0  0
    6.5301    3.5408    2.3975 C   0  0  0  0  0  0  0  0  0  0  0  0
   -2.3546   -2.6742   -0.9658 H   0  0  0  0  0  0  0  0  0  0  0  0
    1.5459   -0.4016   -0.0346 H   0  0  0  0  0  0  0  0  0  0  0  0
   -0.3904   -2.8623   -2.3295 H   0  0  0  0  0  0  0  0  0  0  0  0
   -0.1005   -1.2972   -3.0905 H   0  0  0  0  0  0  0  0  0  0  0  0
    1.7851   -2.9229   -1.7525 H   0  0  0  0  0  0  0  0  0  0  0  0
   -0.1708   -1.4346    2.4206 H   0  0  0  0  0  0  0  0  0  0  0  0
   -0.4778    0.0185    1.4973 H   0  0  0  0  0  0  0  0  0  0  0  0
   -2.6895    0.9716    0.6608 H   0  0  0  0  0  0  0  0  0  0  0  0
    0.3592    0.6426   -1.4322 H   0  0  0  0  0  0  0  0  0  0  0  0
   -1.2469    0.7076   -2.0740 H   0  0  0  0  0  0  0  0  0  0  0  0
   -0.9641    0.9528   -0.3487 H   0  0  0  0  0  0  0  0  0  0  0  0
   -2.5499   -1.1594   -3.0504 H   0  0  0  0  0  0  0  0  0  0  0  0
   -3.9292   -1.9646   -2.3479 H   0  0  0  0  0  0  0  0  0  0  0  0
    0.0966   -3.9120   -0.3490 H   0  0  0  0  0  0  0  0  0  0  0  0
   -1.3359   -3.5808    0.5740 H   0  0  0  0  0  0  0  0  0  0  0  0
    0.1553   -3.6435    1.4187 H   0  0  0  0  0  0  0  0  0  0  0  0
   -4.7768   -1.9964    1.5669 H   0  0  0  0  0  0  0  0  0  0  0  0
   -5.0277   -1.9900   -0.1793 H   0  0  0  0  0  0  0  0  0  0  0  0
   -3.9431   -3.1701    0.5738 H   0  0  0  0  0  0  0  0  0  0  0  0
   -4.3250    0.4581   -2.9985 H   0  0  0  0  0  0  0  0  0  0  0  0
   -4.3201    0.2155    2.5134 H   0  0  0  0  0  0  0  0  0  0  0  0
    3.2114   -1.3875   -2.2222 H   0  0  0  0  0  0  0  0  0  0  0  0
    3.2524   -2.0439    2.7113 H   0  0  0  0  0  0  0  0  0  0  0  0
    2.0856   -0.7830    2.3684 H   0  0  0  0  0  0  0  0  0  0  0  0
    1.5754   -2.4750    2.7076 H   0  0  0  0  0  0  0  0  0  0  0  0
    2.8879   -4.0327    1.1387 H   0  0  0  0  0  0  0  0  0  0  0  0
    3.5368    0.2075   -0.4287 H   0  0  0  0  0  0  0  0  0  0  0  0
    4.2293    0.0100    1.1927 H   0  0  0  0  0  0  0  0  0  0  0  0
   -3.4392    3.1883    0.4934 H   0  0  0  0  0  0  0  0  0  0  0  0
   -3.0237    3.3983   -1.2136 H   0  0  0  0  0  0  0  0  0  0  0  0
   -4.3788    4.2883   -0.4972 H   0  0  0  0  0  0  0  0  0  0  0  0
   -6.2068    1.8489   -2.5845 H   0  0  0  0  0  0  0  0  0  0  0  0
   -5.9967    3.5467   -2.1712 H   0  0  0  0  0  0  0  0  0  0  0  0
   -4.7179    2.7092   -3.0449 H   0  0  0  0  0  0  0  0  0  0  0  0
    5.6967   -0.5995   -1.4276 H   0  0  0  0  0  0  0  0  0  0  0  0
    6.3687   -0.7224    0.1959 H   0  0  0  0  0  0  0  0  0  0  0  0
   -7.2208    2.1839    2.1497 H   0  0  0  0  0  0  0  0  0  0  0  0
    5.6294    3.1155   -1.6831 H   0  0  0  0  0  0  0  0  0  0  0  0
    4.8898    1.6415   -2.2500 H   0  0  0  0  0  0  0  0  0  0  0  0
    4.2713    2.4420   -0.7924 H   0  0  0  0  0  0  0  0  0  0  0  0
    7.8636    2.3772   -1.3654 H   0  0  0  0  0  0  0  0  0  0  0  0
    8.2705    1.0370   -0.2965 H   0  0  0  0  0  0  0  0  0  0  0  0
    7.6422    0.7447   -1.9265 H   0  0  0  0  0  0  0  0  0  0  0  0
    6.8762    4.5745    2.4868 H   0  0  0  0  0  0  0  0  0  0  0  0
    5.5056    3.4829    2.7735 H   0  0  0  0  0  0  0  0  0  0  0  0
    7.1929    2.8996    2.9841 H   0  0  0  0  0  0  0  0  0  0  0  0
  1 15  1  0  0  0  0
  1 62  1  0  0  0  0
  2 22  1  0  0  0  0
  2 66  1  0  0  0  0
  3 17  2  0  0  0  0
  4 29  2  0  0  0  0
  5 31  1  0  0  0  0
  5 77  1  0  0  0  0
  6 30  2  0  0  0  0
  7 36  1  0  0  0  0
  7 39  1  0  0  0  0
  8 39  2  0  0  0  0
  9 10  1  0  0  0  0
  9 11  1  0  0  0  0
  9 14  1  0  0  0  0
  9 19  1  0  0  0  0
 10 12  1  0  0  0  0
 10 16  1  0  0  0  0
 10 21  1  0  0  0  0
 11 13  1  0  0  0  0
 11 20  1  0  0  0  0
 11 41  1  0  0  0  0
 12 15  1  0  0  0  0
 12 22  1  0  0  0  0
 12 42  1  0  0  0  0
 13 17  1  0  0  0  0
 13 18  1  0  0  0  0
 13 23  1  0  0  0  0
 14 15  1  0  0  0  0
 14 43  1  0  0  0  0
 14 44  1  0  0  0  0
 15 45  1  0  0  0  0
 16 17  1  0  0  0  0
 16 46  1  0  0  0  0
 16 47  1  0  0  0  0
 18 24  1  0  0  0  0
 18 27  1  0  0  0  0
 18 48  1  0  0  0  0
 19 49  1  0  0  0  0
 19 50  1  0  0  0  0
 19 51  1  0  0  0  0
 20 25  1  0  0  0  0
 20 52  1  0  0  0  0
 20 53  1  0  0  0  0
 21 54  1  0  0  0  0
 21 55  1  0  0  0  0
 21 56  1  0  0  0  0
 22 28  1  0  0  0  0
 22 29  1  0  0  0  0
 23 57  1  0  0  0  0
 23 58  1  0  0  0  0
 23 59  1  0  0  0  0
 24 25  2  0  0  0  0
 24 26  1  0  0  0  0
 25 60  1  0  0  0  0
 26 30  1  0  0  0  0
 26 33  1  0  0  0  0
 26 34  1  0  0  0  0
 27 31  2  0  0  0  0
 27 61  1  0  0  0  0
 28 63  1  0  0  0  0
 28 64  1  0  0  0  0
 28 65  1  0  0  0  0
 29 32  1  0  0  0  0
 30 31  1  0  0  0  0
 32 35  1  0  0  0  0
 32 67  1  0  0  0  0
 32 68  1  0  0  0  0
 33 69  1  0  0  0  0
 33 70  1  0  0  0  0
 33 71  1  0  0  0  0
 34 72  1  0  0  0  0
 34 73  1  0  0  0  0
 34 74  1  0  0  0  0
 35 36  1  0  0  0  0
 35 75  1  0  0  0  0
 35 76  1  0  0  0  0
 36 37  1  0  0  0  0
 36 38  1  0  0  0  0
 37 78  1  0  0  0  0
 37 79  1  0  0  0  0
 37 80  1  0  0  0  0
 38 81  1  0  0  0  0
 38 82  1  0  0  0  0
 38 83  1  0  0  0  0
 39 40  1  0  0  0  0
 40 84  1  0  0  0  0
 40 85  1  0  0  0  0
 40 86  1  0  0  0  0
M  END
> <PUBCHEM_COMPOUND_CID>
21577087

> <PUBCHEM_CONFORMER_RMSD>
1

> <PUBCHEM_CONFORMER_DIVERSEORDER>
2
13
7
23
10
1
15
5
20
11
18
14
6
19
3
4
8
22
17
9
21
16
12

> <PUBCHEM_MMFF94_PARTIAL_CHARGES>
31
1 -0.68
13 0.06
15 0.28
16 0.06
17 0.45
18 0.28
2 -0.68
20 0.14
22 0.34
24 -0.28
25 -0.29
26 0.2
27 -0.29
29 0.45
3 -0.57
30 0.49
31 0.09
32 0.06
36 0.28
39 0.66
4 -0.57
40 0.06
5 -0.53
6 -0.57
60 0.15
61 0.15
62 0.4
66 0.4
7 -0.43
77 0.45
8 -0.57

> <PUBCHEM_EFFECTIVE_ROTOR_COUNT>
8.2

> <PUBCHEM_PHARMACOPHORE_FEATURES>
15
1 1 acceptor
1 1 donor
1 2 acceptor
1 2 donor
1 3 acceptor
1 4 acceptor
1 5 donor
1 6 acceptor
1 8 acceptor
3 26 33 34 hydrophobe
3 36 37 38 hydrophobe
5 9 10 12 14 15 rings
6 11 13 18 20 24 25 rings
6 18 24 26 27 30 31 rings
6 9 10 11 13 16 17 rings

> <PUBCHEM_HEAVY_ATOM_COUNT>
40

> <PUBCHEM_ATOM_DEF_STEREO_COUNT>
8

> <PUBCHEM_ATOM_UDEF_STEREO_COUNT>
0

> <PUBCHEM_BOND_DEF_STEREO_COUNT>
0

> <PUBCHEM_BOND_UDEF_STEREO_COUNT>
0

> <PUBCHEM_ISOTOPIC_ATOM_COUNT>
0

> <PUBCHEM_COMPONENT_COUNT>
1

> <PUBCHEM_CACTVS_TAUTO_COUNT>
20

> <PUBCHEM_CONFORMER_ID>
01493D7F00000002

> <PUBCHEM_MMFF94_ENERGY>
159.456

> <PUBCHEM_FEATURE_SELFOVERLAP>
76.25

> <PUBCHEM_SHAPE_FINGERPRINT>
10 15 17822018579478714481
10554248 39 17345760681386048822
10930396 42 17095520717334526717
11007060 377 18057036020372713310
11112241 14 18260259759140089174
11135609 201 18411983585292482467
11393246 34 10303817574770369241
11456790 92 17968651594255211370
11578080 2 18408608049914030443
12422481 6 16443334387149051966
13627167 48 17131553954895683032
13690498 29 16772093972496004303
13782708 43 9943805594989587896
13911987 19 17489591151774173011
14017578 80 16843594123056041560
14202776 33 17987232420586927607
14211702 104 8646774408808633176
14395042 24 16589175860542266667
14739800 52 18262233314003148722
15064981 194 16988837281845289417
15082195 135 17917129642153072702
15131766 46 18341038666857073941
15475509 35 11747232272392482030
15510800 12 9439405731328505408
15840311 113 18336267825800648133
16989378 47 10807937067995442836
17686467 74 18337675338872656755
18393751 57 18336832992495452119
19304671 126 17846506941777933284
19438510 23 18410007750065045648
19958102 18 11383828260110980796
20691028 202 18410857672268928184
21033648 29 18186521025330692370
21033650 10 15123236481713734371
21682296 61 9223232948676261721
21792964 463 17058670464543106425
22122407 14 18411703149745116114
22393880 68 13685429298183995327
23191077 185 18199174265542212806
23569914 152 11310111370188740593
23569914 2 17901062487559282628
25269216 80 17203600515758661557
27425 322 18341896247051020551
2748736 6 18338506543508277432
2838139 119 18412257333849621076
3552219 110 17557435572164079707
3862424 121 12966270803696093132
392239 28 15574990732553051194
4258327 124 18131066022739115477
474113 269 12396300392033708281
5104073 3 17530961367664831306
57724786 102 18200318693109425023
6034566 193 18202845457035316703
6036956 94 18341620325372383288
6201320 221 11531046369207195249
6697151 62 17539670422848335491

> <PUBCHEM_SHAPE_MULTIPOLES>
776.23
18.92
4.49
2.36
18.49
1.98
0.3
24.26
2.55
3.46
0.82
-1.36
0.13
1.68

> <PUBCHEM_SHAPE_SELFOVERLAP>
1654.461

> <PUBCHEM_SHAPE_VOLUME>
427

> <PUBCHEM_COORDINATE_TYPE>
2
5
10

$$$$
