21593552
  -OEChem-02172602553D

 42 44  0     1  0  0  0  0  0999 V2000
    0.5962   -0.6235    0.8721 O   0  0  0  0  0  0  0  0  0  0  0  0
   -0.2976   -0.3408   -0.2656 C   0  0  1  0  0  0  0  0  0  0  0  0
   -0.7526    1.1528   -0.0907 C   0  0  2  0  0  0  0  0  0  0  0  0
    1.8898    0.1191   -0.9538 C   0  0  2  0  0  0  0  0  0  0  0  0
    0.6131   -0.5003   -1.4890 C   0  0  0  0  0  0  0  0  0  0  0  0
   -1.4597   -1.3732   -0.1952 C   0  0  1  0  0  0  0  0  0  0  0  0
    1.9693   -0.5702    0.4210 C   0  0  0  0  0  0  0  0  0  0  0  0
    0.4940    2.0901   -0.0300 C   0  0  0  0  0  0  0  0  0  0  0  0
    1.6730    1.6453   -0.9103 C   0  0  0  0  0  0  0  0  0  0  0  0
   -1.5657    1.3312    1.2320 C   0  0  0  0  0  0  0  0  0  0  0  0
   -2.6387   -0.8962    0.6756 C   0  0  0  0  0  0  0  0  0  0  0  0
   -2.2065    0.0530    1.7769 C   0  0  0  0  0  0  0  0  0  0  0  0
   -1.6318    1.6460   -1.2676 C   0  0  0  0  0  0  0  0  0  0  0  0
   -2.0001   -1.8453   -1.5510 C   0  0  0  0  0  0  0  0  0  0  0  0
    2.8456    0.1366    1.4573 C   0  0  0  0  0  0  0  0  0  0  0  0
    2.4717   -2.0246    0.3183 C   0  0  0  0  0  0  0  0  0  0  0  0
    2.7562   -0.1086   -1.5837 H   0  0  0  0  0  0  0  0  0  0  0  0
    0.2420   -0.0257   -2.4004 H   0  0  0  0  0  0  0  0  0  0  0  0
    0.7855   -1.5516   -1.7395 H   0  0  0  0  0  0  0  0  0  0  0  0
   -1.0596   -2.2702    0.3003 H   0  0  0  0  0  0  0  0  0  0  0  0
    0.8516    2.1580    1.0016 H   0  0  0  0  0  0  0  0  0  0  0  0
    0.2205    3.1208   -0.2904 H   0  0  0  0  0  0  0  0  0  0  0  0
    1.5006    2.0043   -1.9334 H   0  0  0  0  0  0  0  0  0  0  0  0
    2.5869    2.1437   -0.5663 H   0  0  0  0  0  0  0  0  0  0  0  0
   -2.3530    2.0820    1.0841 H   0  0  0  0  0  0  0  0  0  0  0  0
   -0.9372    1.7371    2.0343 H   0  0  0  0  0  0  0  0  0  0  0  0
   -3.1303   -1.7704    1.1209 H   0  0  0  0  0  0  0  0  0  0  0  0
   -3.4043   -0.4056    0.0628 H   0  0  0  0  0  0  0  0  0  0  0  0
   -3.0686    0.3192    2.4000 H   0  0  0  0  0  0  0  0  0  0  0  0
   -1.5002   -0.4592    2.4417 H   0  0  0  0  0  0  0  0  0  0  0  0
   -1.1084    1.6035   -2.2266 H   0  0  0  0  0  0  0  0  0  0  0  0
   -2.5584    1.0771   -1.3645 H   0  0  0  0  0  0  0  0  0  0  0  0
   -1.9244    2.6931   -1.1208 H   0  0  0  0  0  0  0  0  0  0  0  0
   -2.3303   -1.0119   -2.1763 H   0  0  0  0  0  0  0  0  0  0  0  0
   -1.2454   -2.4086   -2.1077 H   0  0  0  0  0  0  0  0  0  0  0  0
   -2.8546   -2.5171   -1.4114 H   0  0  0  0  0  0  0  0  0  0  0  0
    2.8463   -0.4172    2.4038 H   0  0  0  0  0  0  0  0  0  0  0  0
    3.8800    0.2204    1.1080 H   0  0  0  0  0  0  0  0  0  0  0  0
    2.4899    1.1351    1.7132 H   0  0  0  0  0  0  0  0  0  0  0  0
    2.5075   -2.4894    1.3111 H   0  0  0  0  0  0  0  0  0  0  0  0
    1.8075   -2.6630   -0.2712 H   0  0  0  0  0  0  0  0  0  0  0  0
    3.4756   -2.0679   -0.1166 H   0  0  0  0  0  0  0  0  0  0  0  0
  1  2  1  0  0  0  0
  1  7  1  0  0  0  0
  2  3  1  0  0  0  0
  2  5  1  0  0  0  0
  2  6  1  0  0  0  0
  3  8  1  0  0  0  0
  3 10  1  0  0  0  0
  3 13  1  0  0  0  0
  4  5  1  0  0  0  0
  4  7  1  0  0  0  0
  4  9  1  0  0  0  0
  4 17  1  0  0  0  0
  5 18  1  0  0  0  0
  5 19  1  0  0  0  0
  6 11  1  0  0  0  0
  6 14  1  0  0  0  0
  6 20  1  0  0  0  0
  7 15  1  0  0  0  0
  7 16  1  0  0  0  0
  8  9  1  0  0  0  0
  8 21  1  0  0  0  0
  8 22  1  0  0  0  0
  9 23  1  0  0  0  0
  9 24  1  0  0  0  0
 10 12  1  0  0  0  0
 10 25  1  0  0  0  0
 10 26  1  0  0  0  0
 11 12  1  0  0  0  0
 11 27  1  0  0  0  0
 11 28  1  0  0  0  0
 12 29  1  0  0  0  0
 12 30  1  0  0  0  0
 13 31  1  0  0  0  0
 13 32  1  0  0  0  0
 13 33  1  0  0  0  0
 14 34  1  0  0  0  0
 14 35  1  0  0  0  0
 14 36  1  0  0  0  0
 15 37  1  0  0  0  0
 15 38  1  0  0  0  0
 15 39  1  0  0  0  0
 16 40  1  0  0  0  0
 16 41  1  0  0  0  0
 16 42  1  0  0  0  0
M  END
> <PUBCHEM_COMPOUND_CID>
21593552

> <PUBCHEM_CONFORMER_RMSD>
0.6

> <PUBCHEM_CONFORMER_DIVERSEORDER>
1

> <PUBCHEM_MMFF94_PARTIAL_CHARGES>
3
1 -0.56
2 0.28
7 0.28

> <PUBCHEM_EFFECTIVE_ROTOR_COUNT>
1.8

> <PUBCHEM_PHARMACOPHORE_FEATURES>
4
1 1 acceptor
3 7 15 16 hydrophobe
6 2 3 6 10 11 12 rings
8 1 2 3 4 5 7 8 9 rings

> <PUBCHEM_HEAVY_ATOM_COUNT>
16

> <PUBCHEM_ATOM_DEF_STEREO_COUNT>
4

> <PUBCHEM_ATOM_UDEF_STEREO_COUNT>
0

> <PUBCHEM_BOND_DEF_STEREO_COUNT>
0

> <PUBCHEM_BOND_UDEF_STEREO_COUNT>
0

> <PUBCHEM_ISOTOPIC_ATOM_COUNT>
0

> <PUBCHEM_COMPONENT_COUNT>
1

> <PUBCHEM_CACTVS_TAUTO_COUNT>
1

> <PUBCHEM_CONFORMER_ID>
01497DD000000001

> <PUBCHEM_MMFF94_ENERGY>
70.319

> <PUBCHEM_FEATURE_SELFOVERLAP>
20.324

> <PUBCHEM_SHAPE_FINGERPRINT>
10702982 57 16518195593697549877
10863032 1 17912610627835270532
11086676 242 18264793041460386097
11578080 2 17984957518639950801
11680611 10 18270695258580517611
12423570 1 9551413517171812614
12491281 212 17339329796361617537
13024252 1 16734390387212556051
13027679 85 16474331521947264342
13172582 1 18269568147387227137
13571099 52 14907324244668199626
13898156 1 18058179495032218079
144361 1 17983894260239776129
14817 1 17174089442631640869
15076042 46 17974861566196309688
15557651 10 14978864041680682753
15852999 172 17630589142485331215
15881359 60 18411136896961889357
16945 1 18263641938542876084
19010151 120 18123165051602237402
20511035 2 17830176805142858684
20525323 117 18341325677808836408
22112679 90 18128825315987113933
22344851 341 16324824951529109063
23236772 104 17909855432264083793
23388829 49 18267854159215209500
23419403 2 16529399810352665924
2748010 2 18050858710243571917
44249140 249 15502388819454696346
5084963 1 18340213989869771930
528886 8 17629511792725337092
598444 67 17112983959095347938
81228 2 17680688351393117612

> <PUBCHEM_SHAPE_MULTIPOLES>
323.4
3.73
2.14
1.64
0.63
0.16
0.08
-1.05
1.05
-0.13
-0.48
-0.39
0.01
-0.52

> <PUBCHEM_SHAPE_SELFOVERLAP>
681.575

> <PUBCHEM_SHAPE_VOLUME>
183.9

> <PUBCHEM_COORDINATE_TYPE>
2
5
10

$$$$
