384679
  -OEChem-02172603003D

 50 52  0     1  0  0  0  0  0999 V2000
   -0.2966   -1.2533    0.7715 O   0  0  0  0  0  0  0  0  0  0  0  0
   -0.2658    2.3506    2.1722 O   0  0  0  0  0  0  0  0  0  0  0  0
    1.9486   -2.9741    1.2108 O   0  0  0  0  0  0  0  0  0  0  0  0
   -5.8415    0.9481    0.3555 O   0  0  0  0  0  0  0  0  0  0  0  0
   -6.0270   -0.7786   -1.8150 O   0  0  0  0  0  0  0  0  0  0  0  0
    7.2870    1.1590   -2.5547 O   0  0  0  0  0  0  0  0  0  0  0  0
   -0.1965    1.0963    0.1400 C   0  0  2  0  0  0  0  0  0  0  0  0
   -1.0573   -0.0124    0.7916 C   0  0  1  0  0  0  0  0  0  0  0  0
    1.1488    0.5045    0.3729 C   0  0  0  0  0  0  0  0  0  0  0  0
    1.0092   -0.8380    0.6975 C   0  0  0  0  0  0  0  0  0  0  0  0
   -0.4205    2.4638    0.7680 C   0  0  0  0  0  0  0  0  0  0  0  0
   -2.3852   -0.2148    0.0985 C   0  0  0  0  0  0  0  0  0  0  0  0
    2.4060    1.0696    0.2451 C   0  0  0  0  0  0  0  0  0  0  0  0
    3.5236    0.2585    0.4619 C   0  0  0  0  0  0  0  0  0  0  0  0
    2.0994   -1.6619    0.9022 C   0  0  0  0  0  0  0  0  0  0  0  0
    3.3710   -1.0990    0.7868 C   0  0  0  0  0  0  0  0  0  0  0  0
    4.8933    0.8376    0.3366 C   0  0  0  0  0  0  0  0  0  0  0  0
   -3.5176    0.4649    0.5476 C   0  0  0  0  0  0  0  0  0  0  0  0
   -2.4786   -1.0812   -0.9909 C   0  0  0  0  0  0  0  0  0  0  0  0
    5.4395    0.7308   -1.0921 C   0  0  0  0  0  0  0  0  0  0  0  0
   -4.7431    0.2785   -0.0924 C   0  0  0  0  0  0  0  0  0  0  0  0
   -3.7040   -1.2679   -1.6307 C   0  0  0  0  0  0  0  0  0  0  0  0
   -4.8362   -0.5880   -1.1815 C   0  0  0  0  0  0  0  0  0  0  0  0
    6.8556    1.2778   -1.2060 C   0  0  0  0  0  0  0  0  0  0  0  0
    1.8873   -3.8989    0.1233 C   0  0  0  0  0  0  0  0  0  0  0  0
   -6.0994    2.2279   -0.2188 C   0  0  0  0  0  0  0  0  0  0  0  0
   -0.3640    1.1519   -0.9434 H   0  0  0  0  0  0  0  0  0  0  0  0
   -1.2514    0.1786    1.8561 H   0  0  0  0  0  0  0  0  0  0  0  0
   -1.4318    2.8257    0.5577 H   0  0  0  0  0  0  0  0  0  0  0  0
    0.2978    3.2002    0.3937 H   0  0  0  0  0  0  0  0  0  0  0  0
    2.5187    2.1137   -0.0287 H   0  0  0  0  0  0  0  0  0  0  0  0
    4.2483   -1.7222    0.9461 H   0  0  0  0  0  0  0  0  0  0  0  0
    5.5731    0.3299    1.0331 H   0  0  0  0  0  0  0  0  0  0  0  0
    4.8819    1.8891    0.6519 H   0  0  0  0  0  0  0  0  0  0  0  0
   -3.4506    1.1415    1.3962 H   0  0  0  0  0  0  0  0  0  0  0  0
   -1.6083   -1.6130   -1.3656 H   0  0  0  0  0  0  0  0  0  0  0  0
    4.7825    1.2671   -1.7893 H   0  0  0  0  0  0  0  0  0  0  0  0
    5.4296   -0.3142   -1.4288 H   0  0  0  0  0  0  0  0  0  0  0  0
   -0.4204    3.2333    2.5494 H   0  0  0  0  0  0  0  0  0  0  0  0
   -3.7621   -1.9438   -2.4796 H   0  0  0  0  0  0  0  0  0  0  0  0
    6.9040    2.3318   -0.9147 H   0  0  0  0  0  0  0  0  0  0  0  0
    7.5471    0.7109   -0.5754 H   0  0  0  0  0  0  0  0  0  0  0  0
    1.0309   -3.6763   -0.5210 H   0  0  0  0  0  0  0  0  0  0  0  0
    1.7647   -4.9041    0.5355 H   0  0  0  0  0  0  0  0  0  0  0  0
    2.8145   -3.8675   -0.4576 H   0  0  0  0  0  0  0  0  0  0  0  0
   -5.9004   -1.4096   -2.5442 H   0  0  0  0  0  0  0  0  0  0  0  0
    6.6861    1.6914   -3.1034 H   0  0  0  0  0  0  0  0  0  0  0  0
   -6.2557    2.1417   -1.2986 H   0  0  0  0  0  0  0  0  0  0  0  0
   -5.2719    2.9142   -0.0123 H   0  0  0  0  0  0  0  0  0  0  0  0
   -7.0090    2.6303    0.2353 H   0  0  0  0  0  0  0  0  0  0  0  0
  1  8  1  0  0  0  0
  1 10  1  0  0  0  0
  2 11  1  0  0  0  0
  2 39  1  0  0  0  0
  3 15  1  0  0  0  0
  3 25  1  0  0  0  0
  4 21  1  0  0  0  0
  4 26  1  0  0  0  0
  5 23  1  0  0  0  0
  5 46  1  0  0  0  0
  6 24  1  0  0  0  0
  6 47  1  0  0  0  0
  7  8  1  0  0  0  0
  7  9  1  0  0  0  0
  7 11  1  0  0  0  0
  7 27  1  0  0  0  0
  8 12  1  0  0  0  0
  8 28  1  0  0  0  0
  9 10  2  0  0  0  0
  9 13  1  0  0  0  0
 10 15  1  0  0  0  0
 11 29  1  0  0  0  0
 11 30  1  0  0  0  0
 12 18  2  0  0  0  0
 12 19  1  0  0  0  0
 13 14  2  0  0  0  0
 13 31  1  0  0  0  0
 14 16  1  0  0  0  0
 14 17  1  0  0  0  0
 15 16  2  0  0  0  0
 16 32  1  0  0  0  0
 17 20  1  0  0  0  0
 17 33  1  0  0  0  0
 17 34  1  0  0  0  0
 18 21  1  0  0  0  0
 18 35  1  0  0  0  0
 19 22  2  0  0  0  0
 19 36  1  0  0  0  0
 20 24  1  0  0  0  0
 20 37  1  0  0  0  0
 20 38  1  0  0  0  0
 21 23  2  0  0  0  0
 22 23  1  0  0  0  0
 22 40  1  0  0  0  0
 24 41  1  0  0  0  0
 24 42  1  0  0  0  0
 25 43  1  0  0  0  0
 25 44  1  0  0  0  0
 25 45  1  0  0  0  0
 26 48  1  0  0  0  0
 26 49  1  0  0  0  0
 26 50  1  0  0  0  0
M  END
> <PUBCHEM_COMPOUND_CID>
384679

> <PUBCHEM_CONFORMER_RMSD>
0.8

> <PUBCHEM_CONFORMER_DIVERSEORDER>
1
25
67
55
38
14
15
41
24
53
17
33
66
61
12
45
58
60
42
23
27
49
51
62
4
39
20
10
54
44
22
34
11
29
46
48
52
59
65
63
18
43
13
16
57
2
30
56
9
6
50
64
21
5
47
37
28
36
40
19
32
26
35
7
3
31
8

> <PUBCHEM_MMFF94_PARTIAL_CHARGES>
33
1 -0.36
10 0.08
11 0.28
12 -0.14
13 -0.15
14 -0.14
15 0.08
16 -0.15
17 0.14
18 -0.15
19 -0.15
2 -0.68
21 0.08
22 -0.15
23 0.08
24 0.28
25 0.28
26 0.28
3 -0.36
31 0.15
32 0.15
35 0.15
36 0.15
39 0.4
4 -0.36
40 0.15
46 0.45
47 0.4
5 -0.53
6 -0.68
7 0.14
8 0.42
9 -0.14

> <PUBCHEM_EFFECTIVE_ROTOR_COUNT>
7.6

> <PUBCHEM_PHARMACOPHORE_FEATURES>
11
1 1 acceptor
1 2 acceptor
1 2 donor
1 3 acceptor
1 4 acceptor
1 5 donor
1 6 acceptor
1 6 donor
5 1 7 8 9 10 rings
6 12 18 19 21 22 23 rings
6 9 10 13 14 15 16 rings

> <PUBCHEM_HEAVY_ATOM_COUNT>
26

> <PUBCHEM_ATOM_DEF_STEREO_COUNT>
2

> <PUBCHEM_ATOM_UDEF_STEREO_COUNT>
0

> <PUBCHEM_BOND_DEF_STEREO_COUNT>
0

> <PUBCHEM_BOND_UDEF_STEREO_COUNT>
0

> <PUBCHEM_ISOTOPIC_ATOM_COUNT>
0

> <PUBCHEM_COMPONENT_COUNT>
1

> <PUBCHEM_CACTVS_TAUTO_COUNT>
3

> <PUBCHEM_CONFORMER_ID>
0005DEA700000001

> <PUBCHEM_MMFF94_ENERGY>
90.9162

> <PUBCHEM_FEATURE_SELFOVERLAP>
55.927

> <PUBCHEM_SHAPE_FINGERPRINT>
10 15 13984662581425672956
10090160 65 18187639198274839146
10693767 8 18202562844335702774
10906281 52 18186809058310689368
11135609 187 18335707165513525576
11135926 11 18335130986522866382
11796584 16 15913333498297229158
12107183 9 17623286070890919459
12236239 1 18271799112583682395
12293681 160 18341338859543815216
12788726 201 17988365853887220401
13257819 101 16515954948014438750
13540713 5 18195811761082837816
13782708 43 14549019879344098340
13911987 19 18260834838513424358
14347332 77 18059580118886441798
14528608 73 18412258463009405360
14767858 380 18409730685967059100
14790565 3 18339076115557737049
15183329 4 17489595536481913388
15475509 35 14333410043395073734
15537594 2 18272088292800384787
1601671 61 17989198231750240281
17492 54 18261107513065293698
18681886 176 17274532234615012441
20511986 3 18057862732852078105
21033648 29 12901818467468242348
21267235 1 17987798639790610559
21304303 64 17530971297328701829
21637258 2 14836129836520819468
21641784 216 18187369792146265844
22393880 68 18059563741617044271
23559900 14 16200143331016186331
25147074 1 18267307521937917192
266924 1 18270686346692054056
2838139 119 16443621415370380996
2916195 48 14634864275494503332
3004659 81 18266730299196916746
34797466 226 16773225326915898768
34934 24 18343012281575381979
4073 2 17822297864623699563
4340502 62 14056715756179805656
465052 167 12247679421827672924
59755656 215 17989212534107368004
6898599 12 17755037620427657972
7164475 11 18195799670196186720

> <PUBCHEM_SHAPE_MULTIPOLES>
499.85
15.16
2.79
1.57
3.36
1.95
0.61
-6.91
10.29
1.03
-0.73
1.03
-0.22
-2.57

> <PUBCHEM_SHAPE_SELFOVERLAP>
1069.816

> <PUBCHEM_SHAPE_VOLUME>
279.2

> <PUBCHEM_COORDINATE_TYPE>
2
5
10

$$$$
