10168642
  -OEChem-02172602523D

 74 78  0     1  0  0  0  0  0999 V2000
   -6.3140   -6.0471    0.1122 Cl  0  0  0  0  0  0  0  0  0  0  0  0
   -1.6249   -4.0934   -1.7114 Cl  0  0  0  0  0  0  0  0  0  0  0  0
   -5.6820   -0.6820   -0.5010 S   0  0  0  0  0  0  0  0  0  0  0  0
   -4.9401    0.1414   -1.4379 O   0  0  0  0  0  0  0  0  0  0  0  0
   -7.1284   -0.7671   -0.5814 O   0  0  0  0  0  0  0  0  0  0  0  0
   -3.8316    2.0530    2.5351 O   0  0  0  0  0  0  0  0  0  0  0  0
   -5.6920    3.2767   -0.2352 O   0  0  0  0  0  0  0  0  0  0  0  0
   -4.8083    5.3575   -0.2289 O   0  0  0  0  0  0  0  0  0  0  0  0
    2.6850   -0.4684   -1.5032 O   0  0  0  0  0  0  0  0  0  0  0  0
   -5.2273   -0.2836    1.0885 N   0  0  2  0  0  0  0  0  0  0  0  0
   -3.4227    2.0645    0.2434 N   0  0  0  0  0  0  0  0  0  0  0  0
    2.8568    1.6426   -0.4823 N   0  0  0  0  0  0  0  0  0  0  0  0
   -3.7875   -0.0165    1.3586 C   0  0  2  0  0  0  0  0  0  0  0  0
   -3.4757   -0.7203    2.6746 C   0  0  0  0  0  0  0  0  0  0  0  0
   -4.8294   -0.8491    3.3531 C   0  0  0  0  0  0  0  0  0  0  0  0
   -5.7619   -1.1332    2.1875 C   0  0  0  0  0  0  0  0  0  0  0  0
   -3.6806    1.4679    1.4658 C   0  0  0  0  0  0  0  0  0  0  0  0
   -5.0416   -2.3255   -0.6147 C   0  0  0  0  0  0  0  0  0  0  0  0
   -3.2961    3.4938    0.0724 C   0  0  1  0  0  0  0  0  0  0  0  0
   -2.3646    3.8301   -1.0993 C   0  0  0  0  0  0  0  0  0  0  0  0
   -3.7392   -2.5366   -1.0672 C   0  0  0  0  0  0  0  0  0  0  0  0
   -5.8378   -3.4111   -0.2500 C   0  0  0  0  0  0  0  0  0  0  0  0
   -4.6553    4.1436   -0.1411 C   0  0  0  0  0  0  0  0  0  0  0  0
   -0.9802    3.2503   -0.9365 C   0  0  0  0  0  0  0  0  0  0  0  0
   -5.3315   -4.7079   -0.3377 C   0  0  0  0  0  0  0  0  0  0  0  0
   -3.2328   -3.8334   -1.1547 C   0  0  0  0  0  0  0  0  0  0  0  0
   -4.0290   -4.9191   -0.7900 C   0  0  0  0  0  0  0  0  0  0  0  0
    0.0129    3.9869   -0.2907 C   0  0  0  0  0  0  0  0  0  0  0  0
   -0.6943    1.9776   -1.4309 C   0  0  0  0  0  0  0  0  0  0  0  0
    1.2917    3.4511   -0.1394 C   0  0  0  0  0  0  0  0  0  0  0  0
    0.5846    1.4416   -1.2795 C   0  0  0  0  0  0  0  0  0  0  0  0
    1.5776    2.1785   -0.6339 C   0  0  0  0  0  0  0  0  0  0  0  0
    3.3249    0.3930   -0.9096 C   0  0  0  0  0  0  0  0  0  0  0  0
    4.7416    0.0943   -0.5734 C   0  0  0  0  0  0  0  0  0  0  0  0
    7.4003   -0.4671    0.0585 C   0  0  0  0  0  0  0  0  0  0  0  0
    5.4772   -0.7841   -1.3692 C   0  0  0  0  0  0  0  0  0  0  0  0
    5.3354    0.6917    0.5386 C   0  0  0  0  0  0  0  0  0  0  0  0
    6.8064   -1.0647   -1.0534 C   0  0  0  0  0  0  0  0  0  0  0  0
    6.6647    0.4110    0.8545 C   0  0  0  0  0  0  0  0  0  0  0  0
    8.7791   -0.7583    0.3860 C   0  0  0  0  0  0  0  0  0  0  0  0
    9.0846   -1.8241    1.2324 C   0  0  0  0  0  0  0  0  0  0  0  0
    9.8029    0.0265   -0.1448 C   0  0  0  0  0  0  0  0  0  0  0  0
   10.4138   -2.1052    1.5482 C   0  0  0  0  0  0  0  0  0  0  0  0
   11.1322   -0.2548    0.1709 C   0  0  0  0  0  0  0  0  0  0  0  0
   11.4376   -1.3207    1.0174 C   0  0  0  0  0  0  0  0  0  0  0  0
   -3.1153   -0.3842    0.5804 H   0  0  0  0  0  0  0  0  0  0  0  0
   -2.7444   -0.1983    3.2991 H   0  0  0  0  0  0  0  0  0  0  0  0
   -3.0813   -1.7233    2.4676 H   0  0  0  0  0  0  0  0  0  0  0  0
   -5.1058    0.0915    3.8431 H   0  0  0  0  0  0  0  0  0  0  0  0
   -4.8489   -1.6419    4.1064 H   0  0  0  0  0  0  0  0  0  0  0  0
   -6.7919   -0.8536    2.4244 H   0  0  0  0  0  0  0  0  0  0  0  0
   -5.7177   -2.1981    1.9676 H   0  0  0  0  0  0  0  0  0  0  0  0
   -3.4229    1.4866   -0.5920 H   0  0  0  0  0  0  0  0  0  0  0  0
   -2.8972    3.9039    1.0087 H   0  0  0  0  0  0  0  0  0  0  0  0
   -2.2883    4.9188   -1.2213 H   0  0  0  0  0  0  0  0  0  0  0  0
   -2.7974    3.4672   -2.0422 H   0  0  0  0  0  0  0  0  0  0  0  0
   -3.1123   -1.6984   -1.3599 H   0  0  0  0  0  0  0  0  0  0  0  0
   -6.8557   -3.2569    0.0995 H   0  0  0  0  0  0  0  0  0  0  0  0
   -3.6340   -5.9305   -0.8580 H   0  0  0  0  0  0  0  0  0  0  0  0
   -0.1989    4.9784    0.1006 H   0  0  0  0  0  0  0  0  0  0  0  0
   -1.4567    1.3947   -1.9411 H   0  0  0  0  0  0  0  0  0  0  0  0
   -6.5456    3.7391   -0.3755 H   0  0  0  0  0  0  0  0  0  0  0  0
    2.0553    4.0363    0.3668 H   0  0  0  0  0  0  0  0  0  0  0  0
    0.7271    0.4520   -1.6898 H   0  0  0  0  0  0  0  0  0  0  0  0
    3.5160    2.2730   -0.0344 H   0  0  0  0  0  0  0  0  0  0  0  0
    5.0345   -1.2558   -2.2425 H   0  0  0  0  0  0  0  0  0  0  0  0
    4.7914    1.3519    1.2073 H   0  0  0  0  0  0  0  0  0  0  0  0
    7.3660   -1.7506   -1.6850 H   0  0  0  0  0  0  0  0  0  0  0  0
    7.1104    0.8788    1.7293 H   0  0  0  0  0  0  0  0  0  0  0  0
    8.2987   -2.4460    1.6548 H   0  0  0  0  0  0  0  0  0  0  0  0
    9.5824    0.8610   -0.8063 H   0  0  0  0  0  0  0  0  0  0  0  0
   10.6518   -2.9349    2.2072 H   0  0  0  0  0  0  0  0  0  0  0  0
   11.9296    0.3559   -0.2423 H   0  0  0  0  0  0  0  0  0  0  0  0
   12.4726   -1.5395    1.2631 H   0  0  0  0  0  0  0  0  0  0  0  0
  1 25  1  0  0  0  0
  2 26  1  0  0  0  0
  3  4  2  0  0  0  0
  3  5  2  0  0  0  0
  3 10  1  0  0  0  0
  3 18  1  0  0  0  0
  6 17  2  0  0  0  0
  7 23  1  0  0  0  0
  7 62  1  0  0  0  0
  8 23  2  0  0  0  0
  9 33  2  0  0  0  0
 10 13  1  0  0  0  0
 10 16  1  0  0  0  0
 11 17  1  0  0  0  0
 11 19  1  0  0  0  0
 11 53  1  0  0  0  0
 12 32  1  0  0  0  0
 12 33  1  0  0  0  0
 12 65  1  0  0  0  0
 13 14  1  0  0  0  0
 13 17  1  0  0  0  0
 13 46  1  0  0  0  0
 14 15  1  0  0  0  0
 14 47  1  0  0  0  0
 14 48  1  0  0  0  0
 15 16  1  0  0  0  0
 15 49  1  0  0  0  0
 15 50  1  0  0  0  0
 16 51  1  0  0  0  0
 16 52  1  0  0  0  0
 18 21  2  0  0  0  0
 18 22  1  0  0  0  0
 19 20  1  0  0  0  0
 19 23  1  0  0  0  0
 19 54  1  0  0  0  0
 20 24  1  0  0  0  0
 20 55  1  0  0  0  0
 20 56  1  0  0  0  0
 21 26  1  0  0  0  0
 21 57  1  0  0  0  0
 22 25  2  0  0  0  0
 22 58  1  0  0  0  0
 24 28  2  0  0  0  0
 24 29  1  0  0  0  0
 25 27  1  0  0  0  0
 26 27  2  0  0  0  0
 27 59  1  0  0  0  0
 28 30  1  0  0  0  0
 28 60  1  0  0  0  0
 29 31  2  0  0  0  0
 29 61  1  0  0  0  0
 30 32  2  0  0  0  0
 30 63  1  0  0  0  0
 31 32  1  0  0  0  0
 31 64  1  0  0  0  0
 33 34  1  0  0  0  0
 34 36  2  0  0  0  0
 34 37  1  0  0  0  0
 35 38  2  0  0  0  0
 35 39  1  0  0  0  0
 35 40  1  0  0  0  0
 36 38  1  0  0  0  0
 36 66  1  0  0  0  0
 37 39  2  0  0  0  0
 37 67  1  0  0  0  0
 38 68  1  0  0  0  0
 39 69  1  0  0  0  0
 40 41  2  0  0  0  0
 40 42  1  0  0  0  0
 41 43  1  0  0  0  0
 41 70  1  0  0  0  0
 42 44  2  0  0  0  0
 42 71  1  0  0  0  0
 43 45  2  0  0  0  0
 43 72  1  0  0  0  0
 44 45  1  0  0  0  0
 44 73  1  0  0  0  0
 45 74  1  0  0  0  0
M  END
> <PUBCHEM_COMPOUND_CID>
10168642

> <PUBCHEM_CONFORMER_RMSD>
1.2

> <PUBCHEM_CONFORMER_DIVERSEORDER>
1
17
165
126
107
35
134
46
121
139
130
36
115
83
138
12
157
43
37
132
74
18
128
32
73
119
58
149
22
127
175
99
94
120
118
84
27
90
136
70
147
187
170
81
124
162
2
112
180
30
44
33
28
172
186
54
168
65
15
110
182
50
47
183
82
148
66
177
103
123
11
63
122
23
5
106
150
108
161
56
62
153
133
71
181
91
114
129
159
101
72
69
38
9
48
40
29
61
176
188
102
96
173
86
167
141
156
21
6
34
8
174
117
88
53
152
98
178
51
76
20
93
19
49
67
78
116
109
140
97
179
13
31
7
144
42
59
137
171
185
79
24
57
89
16
68
3
105
113
26
85
142
155
14
160
146
104
164
60
75
111
135
55
95
163
10
154
184
125
158
169
64
92
45
143
39
77
52
80
131
41
4
151
87
25
100
145
166

> <PUBCHEM_MMFF94_PARTIAL_CHARGES>
60
1 -0.18
10 -0.85
11 -0.73
12 -0.55
13 0.42
16 0.36
17 0.57
18 -0.01
19 0.36
2 -0.18
20 0.14
21 -0.15
22 -0.15
23 0.66
24 -0.14
25 0.18
26 0.18
27 -0.15
28 -0.15
29 -0.15
3 1.45
30 -0.15
31 -0.15
32 0.12
33 0.54
34 0.09
36 -0.15
37 -0.15
38 -0.15
39 -0.15
4 -0.65
41 -0.15
42 -0.15
43 -0.15
44 -0.15
45 -0.15
5 -0.65
53 0.37
57 0.15
58 0.15
59 0.15
6 -0.57
60 0.15
61 0.15
62 0.5
63 0.15
64 0.15
65 0.37
66 0.15
67 0.15
68 0.15
69 0.15
7 -0.65
70 0.15
71 0.15
72 0.15
73 0.15
74 0.15
8 -0.57
9 -0.57

> <PUBCHEM_EFFECTIVE_ROTOR_COUNT>
13

> <PUBCHEM_PHARMACOPHORE_FEATURES>
14
1 11 donor
1 12 donor
1 4 acceptor
1 5 acceptor
1 6 acceptor
1 7 acceptor
1 8 acceptor
1 9 acceptor
3 7 8 23 anion
5 10 13 14 15 16 rings
6 18 21 22 25 26 27 rings
6 24 28 29 30 31 32 rings
6 34 35 36 37 38 39 rings
6 40 41 42 43 44 45 rings

> <PUBCHEM_HEAVY_ATOM_COUNT>
45

> <PUBCHEM_ATOM_DEF_STEREO_COUNT>
2

> <PUBCHEM_ATOM_UDEF_STEREO_COUNT>
0

> <PUBCHEM_BOND_DEF_STEREO_COUNT>
0

> <PUBCHEM_BOND_UDEF_STEREO_COUNT>
0

> <PUBCHEM_ISOTOPIC_ATOM_COUNT>
0

> <PUBCHEM_COMPONENT_COUNT>
1

> <PUBCHEM_CACTVS_TAUTO_COUNT>
4

> <PUBCHEM_CONFORMER_ID>
009B294200000001

> <PUBCHEM_MMFF94_ENERGY>
117.3499

> <PUBCHEM_FEATURE_SELFOVERLAP>
71.13

> <PUBCHEM_SHAPE_FINGERPRINT>
10100884 174 18261671575711501482
11135926 11 15864076421372190376
11181472 205 10879997965849216692
13008946 119 17982737368657295049
13383668 254 15051153689772989994
14279260 333 17822011978045389939
14294032 229 18411978036748987922
14395042 24 18056782016914754827
14664723 55 10375879575740051626
15264996 151 17833275590673673695
15264996 74 17988910155725327173
15419008 145 18413385462913939126
15538507 19 18411417349652123854
16989713 51 18334575733541022372
17324776 126 18051125092801299567
18603816 31 18333729096507761845
18608769 82 18411416177801460756
19303781 99 18041568043120888497
19611394 137 18272645762687312040
208703 8 18265329702278152003
395649 100 17967534532811093984
45377200 153 18341622474116092854
4616759 239 17987231132408150504
50742298 180 18194688291996843166
5080951 261 18114176393821975989
6691757 9 15985092004004235332

> <PUBCHEM_SHAPE_MULTIPOLES>
883.51
32.15
7.36
2
111.07
1.49
-1.57
26.64
-10.95
-20.34
2.37
-2.38
0.54
-2.48

> <PUBCHEM_SHAPE_SELFOVERLAP>
1888.325

> <PUBCHEM_SHAPE_VOLUME>
489.9

> <PUBCHEM_COORDINATE_TYPE>
2
5
10

$$$$
