68554727
  -OEChem-02172602583D

 37 39  0     1  0  0  0  0  0999 V2000
    0.2913   -0.9745   -0.4602 O   0  0  0  0  0  0  0  0  0  0  0  0
   -0.2566   -0.4923    1.7787 O   0  0  0  0  0  0  0  0  0  0  0  0
   -0.2944    1.8123   -1.0781 O   0  0  0  0  0  0  0  0  0  0  0  0
    1.9654    2.5384    0.8301 O   0  0  0  0  0  0  0  0  0  0  0  0
   -0.4717   -0.1151    0.4071 C   0  0  1  0  0  0  0  0  0  0  0  0
   -0.0371    1.3520    0.2401 C   0  0  1  0  0  0  0  0  0  0  0  0
   -1.9631   -0.2620    0.0852 C   0  0  0  0  0  0  0  0  0  0  0  0
    1.4531    1.4936    0.4444 C   0  0  0  0  0  0  0  0  0  0  0  0
    2.2775    0.3228    0.0909 C   0  0  0  0  0  0  0  0  0  0  0  0
    1.6488   -0.8379   -0.3605 C   0  0  0  0  0  0  0  0  0  0  0  0
   -2.9097    0.4465    0.8250 C   0  0  0  0  0  0  0  0  0  0  0  0
   -2.3736   -1.1044   -0.9480 C   0  0  0  0  0  0  0  0  0  0  0  0
    3.6714    0.3879    0.1671 C   0  0  0  0  0  0  0  0  0  0  0  0
    2.4185   -1.9284   -0.7688 C   0  0  0  0  0  0  0  0  0  0  0  0
   -0.6479   -1.8365    2.0123 C   0  0  0  0  0  0  0  0  0  0  0  0
    4.4352   -0.7120   -0.2239 C   0  0  0  0  0  0  0  0  0  0  0  0
   -4.2669    0.3126    0.5320 C   0  0  0  0  0  0  0  0  0  0  0  0
   -3.7306   -1.2384   -1.2412 C   0  0  0  0  0  0  0  0  0  0  0  0
    3.8103   -1.8666   -0.6953 C   0  0  0  0  0  0  0  0  0  0  0  0
   -0.3427    3.2317   -1.1356 C   0  0  0  0  0  0  0  0  0  0  0  0
   -4.6773   -0.5299   -0.5011 C   0  0  0  0  0  0  0  0  0  0  0  0
   -0.5346    1.9750    0.9955 H   0  0  0  0  0  0  0  0  0  0  0  0
   -2.6114    1.1002    1.6398 H   0  0  0  0  0  0  0  0  0  0  0  0
   -1.6690   -1.6718   -1.5482 H   0  0  0  0  0  0  0  0  0  0  0  0
    4.1773    1.2836    0.5162 H   0  0  0  0  0  0  0  0  0  0  0  0
    1.9411   -2.8332   -1.1355 H   0  0  0  0  0  0  0  0  0  0  0  0
   -0.2971   -2.1064    3.0135 H   0  0  0  0  0  0  0  0  0  0  0  0
   -0.1922   -2.5416    1.3111 H   0  0  0  0  0  0  0  0  0  0  0  0
   -1.7352   -1.9526    2.0199 H   0  0  0  0  0  0  0  0  0  0  0  0
    5.5190   -0.6665   -0.1690 H   0  0  0  0  0  0  0  0  0  0  0  0
   -5.0042    0.8625    1.1095 H   0  0  0  0  0  0  0  0  0  0  0  0
   -4.0508   -1.8941   -2.0457 H   0  0  0  0  0  0  0  0  0  0  0  0
    4.4081   -2.7186   -1.0056 H   0  0  0  0  0  0  0  0  0  0  0  0
   -0.6637    3.5143   -2.1424 H   0  0  0  0  0  0  0  0  0  0  0  0
    0.6412    3.6755   -0.9658 H   0  0  0  0  0  0  0  0  0  0  0  0
   -1.0724    3.6311   -0.4242 H   0  0  0  0  0  0  0  0  0  0  0  0
   -5.7340   -0.6347   -0.7291 H   0  0  0  0  0  0  0  0  0  0  0  0
  1  5  1  0  0  0  0
  1 10  1  0  0  0  0
  2  5  1  0  0  0  0
  2 15  1  0  0  0  0
  3  6  1  0  0  0  0
  3 20  1  0  0  0  0
  4  8  2  0  0  0  0
  5  6  1  0  0  0  0
  5  7  1  0  0  0  0
  6  8  1  0  0  0  0
  6 22  1  0  0  0  0
  7 11  2  0  0  0  0
  7 12  1  0  0  0  0
  8  9  1  0  0  0  0
  9 10  1  0  0  0  0
  9 13  2  0  0  0  0
 10 14  2  0  0  0  0
 11 17  1  0  0  0  0
 11 23  1  0  0  0  0
 12 18  2  0  0  0  0
 12 24  1  0  0  0  0
 13 16  1  0  0  0  0
 13 25  1  0  0  0  0
 14 19  1  0  0  0  0
 14 26  1  0  0  0  0
 15 27  1  0  0  0  0
 15 28  1  0  0  0  0
 15 29  1  0  0  0  0
 16 19  2  0  0  0  0
 16 30  1  0  0  0  0
 17 21  2  0  0  0  0
 17 31  1  0  0  0  0
 18 21  1  0  0  0  0
 18 32  1  0  0  0  0
 19 33  1  0  0  0  0
 20 34  1  0  0  0  0
 20 35  1  0  0  0  0
 20 36  1  0  0  0  0
 21 37  1  0  0  0  0
M  END
> <PUBCHEM_COMPOUND_CID>
68554727

> <PUBCHEM_CONFORMER_RMSD>
0.6

> <PUBCHEM_CONFORMER_DIVERSEORDER>
1
7
5
2
6
8
9
10
4
3

> <PUBCHEM_MMFF94_PARTIAL_CHARGES>
30
1 -0.36
10 0.08
11 -0.15
12 -0.15
13 -0.15
14 -0.15
15 0.28
16 -0.15
17 -0.15
18 -0.15
19 -0.15
2 -0.56
20 0.28
21 -0.15
23 0.15
24 0.15
25 0.15
26 0.15
3 -0.56
30 0.15
31 0.15
32 0.15
33 0.15
37 0.15
4 -0.57
5 0.7
6 0.34
7 -0.14
8 0.42
9 0.09

> <PUBCHEM_EFFECTIVE_ROTOR_COUNT>
3.6

> <PUBCHEM_PHARMACOPHORE_FEATURES>
7
1 1 acceptor
1 2 acceptor
1 3 acceptor
1 4 acceptor
6 1 5 6 8 9 10 rings
6 7 11 12 17 18 21 rings
6 9 10 13 14 16 19 rings

> <PUBCHEM_HEAVY_ATOM_COUNT>
21

> <PUBCHEM_ATOM_DEF_STEREO_COUNT>
0

> <PUBCHEM_ATOM_UDEF_STEREO_COUNT>
2

> <PUBCHEM_BOND_DEF_STEREO_COUNT>
0

> <PUBCHEM_BOND_UDEF_STEREO_COUNT>
0

> <PUBCHEM_ISOTOPIC_ATOM_COUNT>
0

> <PUBCHEM_COMPONENT_COUNT>
1

> <PUBCHEM_CACTVS_TAUTO_COUNT>
2

> <PUBCHEM_CONFORMER_ID>
04160FE700000001

> <PUBCHEM_MMFF94_ENERGY>
74.1602

> <PUBCHEM_FEATURE_SELFOVERLAP>
35.594

> <PUBCHEM_SHAPE_FINGERPRINT>
10863032 1 17845369028129430865
10906281 52 18261967339912108024
11578080 2 17201607048831112161
116883 192 18409166571798296092
12236239 1 17346601876068023007
12788726 201 18187365372856512976
13140716 1 18195800989310146818
13149001 5 17532101664079944993
13583140 156 15697424517116609458
14115302 16 17458922495362744910
14181834 199 18201166566934985228
15536298 74 18060135478857320856
15848700 24 18410009931692245196
15848702 151 18343864403092202535
16752209 62 17604420800140995200
16945 1 18272934937753744688
17357779 13 18261661610933155237
17492 89 18199183086898630407
17980427 23 15410621367276964593
1813 80 18260271836577608885
18186145 218 18040430018890803251
187816 3 17894635829051033506
19010151 120 17132124558090259850
19141452 34 18201720622432954247
200 152 17775286049622184570
20600515 1 17458343078278039756
20645477 70 18340199799308440383
20691752 17 18187356636412673329
21267235 1 18131079228956792751
21285901 2 18337675213257899454
221490 88 18198062671416812207
23175994 123 17968388883114650253
23402539 116 18187644670004898342
23419403 2 14783263160967626805
23493267 7 15213020423272589817
23559900 14 17704345580761864842
2748010 2 18048044261588282640
3250762 1 17391934921017449843
3286 77 17918269870260790064
34934 24 18190178971683062921
46194498 28 17829296397789209367
474 4 18191299592827276377
5104073 3 18060420226789529059
5845 1 17699041442354265940
633830 44 18114176462936584181
6992083 37 18129959879323170601
81228 2 18189347774951730224
84936 182 17558264594671211888
9709674 26 18269273633074948343
9981440 41 17261298714933434681

> <PUBCHEM_SHAPE_MULTIPOLES>
408.69
7.61
2.5
1.33
1.75
1.78
-0.38
-3.03
1.4
-1.01
0.52
0.56
-0.3
0.33

> <PUBCHEM_SHAPE_SELFOVERLAP>
895.652

> <PUBCHEM_SHAPE_VOLUME>
219.1

> <PUBCHEM_COORDINATE_TYPE>
2
5
10

$$$$
