114633
  -OEChem-02172602453D

 20 20  0     1  0  0  0  0  0999 V2000
   -0.6942   -1.5081    0.0966 O   0  0  0  0  0  0  0  0  0  0  0  0
   -0.0187    2.1131    0.5332 O   0  0  0  0  0  0  0  0  0  0  0  0
    2.4346    0.9845   -0.7166 O   0  0  0  0  0  0  0  0  0  0  0  0
   -2.5265    0.2463   -1.0664 O   0  0  0  0  0  0  0  0  0  0  0  0
    0.1275    0.8151   -0.0354 C   0  0  2  0  0  0  0  0  0  0  0  0
   -0.8653   -0.1710    0.5990 C   0  0  1  0  0  0  0  0  0  0  0  0
    1.5657    0.3488    0.2180 C   0  0  1  0  0  0  0  0  0  0  0  0
   -2.3169    0.2195    0.3334 C   0  0  0  0  0  0  0  0  0  0  0  0
    1.6868   -1.1308    0.0540 C   0  0  0  0  0  0  0  0  0  0  0  0
    0.6071   -1.9174   -0.0157 C   0  0  0  0  0  0  0  0  0  0  0  0
   -0.0509    0.9040   -1.1146 H   0  0  0  0  0  0  0  0  0  0  0  0
   -0.7245   -0.1934    1.6886 H   0  0  0  0  0  0  0  0  0  0  0  0
    1.9052    0.6387    1.2185 H   0  0  0  0  0  0  0  0  0  0  0  0
   -2.5507    1.2042    0.7493 H   0  0  0  0  0  0  0  0  0  0  0  0
   -2.9984   -0.5229    0.7616 H   0  0  0  0  0  0  0  0  0  0  0  0
    2.6760   -1.5701   -0.0301 H   0  0  0  0  0  0  0  0  0  0  0  0
    0.6606   -2.9828   -0.1900 H   0  0  0  0  0  0  0  0  0  0  0  0
    0.6394    2.6921    0.1119 H   0  0  0  0  0  0  0  0  0  0  0  0
    2.1672    0.7171   -1.6128 H   0  0  0  0  0  0  0  0  0  0  0  0
   -3.4558    0.4923   -1.2127 H   0  0  0  0  0  0  0  0  0  0  0  0
  1  6  1  0  0  0  0
  1 10  1  0  0  0  0
  2  5  1  0  0  0  0
  2 18  1  0  0  0  0
  3  7  1  0  0  0  0
  3 19  1  0  0  0  0
  4  8  1  0  0  0  0
  4 20  1  0  0  0  0
  5  6  1  0  0  0  0
  5  7  1  0  0  0  0
  5 11  1  0  0  0  0
  6  8  1  0  0  0  0
  6 12  1  0  0  0  0
  7  9  1  0  0  0  0
  7 13  1  0  0  0  0
  8 14  1  0  0  0  0
  8 15  1  0  0  0  0
  9 10  2  0  0  0  0
  9 16  1  0  0  0  0
 10 17  1  0  0  0  0
M  END
> <PUBCHEM_COMPOUND_CID>
114633

> <PUBCHEM_CONFORMER_RMSD>
0.4

> <PUBCHEM_CONFORMER_DIVERSEORDER>
1
6
2
5
7
3
4

> <PUBCHEM_MMFF94_PARTIAL_CHARGES>
15
1 -0.36
10 -0.07
16 0.15
17 0.15
18 0.4
19 0.4
2 -0.68
20 0.4
3 -0.68
4 -0.68
5 0.28
6 0.28
7 0.42
8 0.28
9 -0.29

> <PUBCHEM_EFFECTIVE_ROTOR_COUNT>
1.8

> <PUBCHEM_PHARMACOPHORE_FEATURES>
8
1 1 acceptor
1 2 acceptor
1 2 donor
1 3 acceptor
1 3 donor
1 4 acceptor
1 4 donor
6 1 5 6 7 9 10 rings

> <PUBCHEM_HEAVY_ATOM_COUNT>
10

> <PUBCHEM_ATOM_DEF_STEREO_COUNT>
2

> <PUBCHEM_ATOM_UDEF_STEREO_COUNT>
1

> <PUBCHEM_BOND_DEF_STEREO_COUNT>
0

> <PUBCHEM_BOND_UDEF_STEREO_COUNT>
0

> <PUBCHEM_ISOTOPIC_ATOM_COUNT>
0

> <PUBCHEM_COMPONENT_COUNT>
1

> <PUBCHEM_CACTVS_TAUTO_COUNT>
1

> <PUBCHEM_CONFORMER_ID>
0001BFC900000001

> <PUBCHEM_MMFF94_ENERGY>
19.8305

> <PUBCHEM_FEATURE_SELFOVERLAP>
40.604

> <PUBCHEM_SHAPE_FINGERPRINT>
12423570 1 11886797603510835442
16945 1 18264493888366733682
18185500 45 18271520901544778683
21040471 1 18338516455743878034
23235685 24 18410580607991158097
23552423 10 18192718830077893035
241688 4 17327176546594989290
2748010 2 18267594674539892458
29004967 10 18337393751292651827
5084963 1 17986671467813994402

> <PUBCHEM_SHAPE_MULTIPOLES>
182.32
2.95
1.85
0.79
0.86
0.03
-0.08
-0.28
-0.62
-0.58
0.11
0.2
-0.08
-0.14

> <PUBCHEM_SHAPE_SELFOVERLAP>
363.93

> <PUBCHEM_SHAPE_VOLUME>
106.4

> <PUBCHEM_COORDINATE_TYPE>
2
5
10

$$$$
