101416456
  -OEChem-02172602463D

 90 93  0     1  0  0  0  0  0999 V2000
   -2.8885    3.5770   -1.7106 O   0  0  0  0  0  0  0  0  0  0  0  0
   -1.4302   -2.6625   -2.7937 O   0  0  0  0  0  0  0  0  0  0  0  0
    0.2091   -3.5855   -1.4582 O   0  0  0  0  0  0  0  0  0  0  0  0
    3.0099   -3.9583   -0.2175 O   0  0  0  0  0  0  0  0  0  0  0  0
    6.4004    2.3097   -1.9316 O   0  0  0  0  0  0  0  0  0  0  0  0
    4.7742   -3.0882    0.9882 O   0  0  0  0  0  0  0  0  0  0  0  0
   -3.5780    1.7292   -0.4614 N   0  0  0  0  0  0  0  0  0  0  0  0
   -2.6050   -0.7634    1.2739 N   0  0  0  0  0  0  0  0  0  0  0  0
    0.3926   -0.1249    0.2188 N   0  0  0  0  0  0  0  0  0  0  0  0
    4.1316    1.6344   -1.6412 N   0  3  0  0  0  0  0  0  0  0  0  0
   -5.6090    2.5054    0.4109 C   0  0  1  0  0  0  0  0  0  0  0  0
   -5.0797    3.5141   -0.6389 C   0  0  1  0  0  0  0  0  0  0  0  0
   -4.6415    1.3576    0.3079 C   0  0  0  0  0  0  0  0  0  0  0  0
   -5.6067    3.1163    1.8125 C   0  0  0  0  0  0  0  0  0  0  0  0
   -3.7020    2.9929   -1.0107 C   0  0  0  0  0  0  0  0  0  0  0  0
   -5.9560    3.5569   -1.8860 C   0  0  0  0  0  0  0  0  0  0  0  0
   -4.7623    0.1507    0.8681 C   0  0  0  0  0  0  0  0  0  0  0  0
   -3.8745   -0.9341    0.7864 C   0  0  0  0  0  0  0  0  0  0  0  0
   -6.5359    4.3111    1.8942 C   0  0  0  0  0  0  0  0  0  0  0  0
   -3.9718   -2.2206    0.3040 C   0  0  0  0  0  0  0  0  0  0  0  0
   -2.7164   -2.8450    0.5082 C   0  0  0  0  0  0  0  0  0  0  0  0
   -1.8904   -1.9210    1.1093 C   0  0  0  0  0  0  0  0  0  0  0  0
   -2.3596   -4.2323    0.1432 C   0  0  0  0  0  0  0  0  0  0  0  0
   -0.4926   -1.9408    1.5722 C   0  0  0  0  0  0  0  0  0  0  0  0
    0.4826   -1.1277    1.1508 C   0  0  0  0  0  0  0  0  0  0  0  0
    1.8812   -1.1293    1.5977 C   0  0  0  0  0  0  0  0  0  0  0  0
   -5.1651   -2.8370   -0.3131 C   0  0  0  0  0  0  0  0  0  0  0  0
    2.5422   -0.1540    0.9291 C   0  0  0  0  0  0  0  0  0  0  0  0
    1.5933    0.5109    0.0273 C   0  0  0  0  0  0  0  0  0  0  0  0
   -2.0812   -4.3982   -1.3614 C   0  0  0  0  0  0  0  0  0  0  0  0
    2.3988   -2.0810    2.6202 C   0  0  0  0  0  0  0  0  0  0  0  0
    1.8566    1.5250   -0.8046 C   0  0  0  0  0  0  0  0  0  0  0  0
    3.9746    0.2437    1.0259 C   0  0  0  0  0  0  0  0  0  0  0  0
    2.6164   -3.4777    2.0417 C   0  0  0  0  0  0  0  0  0  0  0  0
    3.2136    2.0575   -0.8543 C   0  0  0  0  0  0  0  0  0  0  0  0
    3.6766    3.1670    0.0202 C   0  0  0  0  0  0  0  0  0  0  0  0
   -0.9481   -3.5248   -1.8500 C   0  0  0  0  0  0  0  0  0  0  0  0
    4.9683    3.4178   -0.2738 C   0  0  0  0  0  0  0  0  0  0  0  0
    5.3622    2.4829   -1.3352 C   0  0  0  0  0  0  0  0  0  0  0  0
    5.9254    4.4049    0.2780 C   0  0  0  0  0  0  0  0  0  0  0  0
    3.6151   -3.4709    0.9064 C   0  0  0  0  0  0  0  0  0  0  0  0
    2.8029    3.8324    1.0211 C   0  0  0  0  0  0  0  0  0  0  0  0
    6.7023    3.8550    1.4669 C   0  0  0  0  0  0  0  0  0  0  0  0
   -0.4688   -1.7624   -3.3544 C   0  0  0  0  0  0  0  0  0  0  0  0
    3.8337   -4.0127   -1.3867 C   0  0  0  0  0  0  0  0  0  0  0  0
   -6.6234    2.1715    0.1581 H   0  0  0  0  0  0  0  0  0  0  0  0
   -4.9483    4.5261   -0.2469 H   0  0  0  0  0  0  0  0  0  0  0  0
   -5.9357    2.3662    2.5424 H   0  0  0  0  0  0  0  0  0  0  0  0
   -4.5955    3.4220    2.1096 H   0  0  0  0  0  0  0  0  0  0  0  0
   -2.7724    1.1353   -0.6219 H   0  0  0  0  0  0  0  0  0  0  0  0
   -6.0422    2.5693   -2.3528 H   0  0  0  0  0  0  0  0  0  0  0  0
   -5.5324    4.2352   -2.6346 H   0  0  0  0  0  0  0  0  0  0  0  0
   -6.9624    3.9100   -1.6393 H   0  0  0  0  0  0  0  0  0  0  0  0
   -5.6806   -0.0430    1.4204 H   0  0  0  0  0  0  0  0  0  0  0  0
   -7.5375    4.0604    1.5300 H   0  0  0  0  0  0  0  0  0  0  0  0
   -6.6342    4.6300    2.9376 H   0  0  0  0  0  0  0  0  0  0  0  0
   -6.1708    5.1748    1.3334 H   0  0  0  0  0  0  0  0  0  0  0  0
   -2.2490    0.0862    1.6926 H   0  0  0  0  0  0  0  0  0  0  0  0
   -3.1647   -4.9172    0.4347 H   0  0  0  0  0  0  0  0  0  0  0  0
   -1.4739   -4.5541    0.7055 H   0  0  0  0  0  0  0  0  0  0  0  0
   -0.2775   -2.7258    2.2916 H   0  0  0  0  0  0  0  0  0  0  0  0
   -6.0796   -2.2891   -0.0637 H   0  0  0  0  0  0  0  0  0  0  0  0
   -5.0673   -2.8471   -1.4034 H   0  0  0  0  0  0  0  0  0  0  0  0
   -5.3024   -3.8672    0.0301 H   0  0  0  0  0  0  0  0  0  0  0  0
   -0.4519    0.1162   -0.2770 H   0  0  0  0  0  0  0  0  0  0  0  0
   -1.8137   -5.4379   -1.5823 H   0  0  0  0  0  0  0  0  0  0  0  0
   -2.9881   -4.1843   -1.9394 H   0  0  0  0  0  0  0  0  0  0  0  0
    1.7099   -2.1361    3.4717 H   0  0  0  0  0  0  0  0  0  0  0  0
    3.3429   -1.7175    3.0411 H   0  0  0  0  0  0  0  0  0  0  0  0
    1.0997    1.9667   -1.4418 H   0  0  0  0  0  0  0  0  0  0  0  0
    4.5381    0.0406    0.1168 H   0  0  0  0  0  0  0  0  0  0  0  0
    4.1198    1.2373    1.4418 H   0  0  0  0  0  0  0  0  0  0  0  0
    4.4761   -0.3955    1.7634 H   0  0  0  0  0  0  0  0  0  0  0  0
    1.6723   -3.9191    1.7034 H   0  0  0  0  0  0  0  0  0  0  0  0
    3.0068   -4.1498    2.8148 H   0  0  0  0  0  0  0  0  0  0  0  0
    4.0712    0.8900   -2.3313 H   0  0  0  0  0  0  0  0  0  0  0  0
    6.6280    4.7228   -0.5015 H   0  0  0  0  0  0  0  0  0  0  0  0
    5.3927    5.3112    0.5887 H   0  0  0  0  0  0  0  0  0  0  0  0
    1.9418    4.2954    0.5289 H   0  0  0  0  0  0  0  0  0  0  0  0
    3.3334    4.6173    1.5686 H   0  0  0  0  0  0  0  0  0  0  0  0
    2.4345    3.1117    1.7575 H   0  0  0  0  0  0  0  0  0  0  0  0
    6.0295    3.5730    2.2839 H   0  0  0  0  0  0  0  0  0  0  0  0
    7.3966    4.6113    1.8466 H   0  0  0  0  0  0  0  0  0  0  0  0
    7.2852    2.9717    1.1848 H   0  0  0  0  0  0  0  0  0  0  0  0
   -0.9779   -1.1394   -4.0945 H   0  0  0  0  0  0  0  0  0  0  0  0
    0.3279   -2.3217   -3.8539 H   0  0  0  0  0  0  0  0  0  0  0  0
   -0.0565   -1.1152   -2.5756 H   0  0  0  0  0  0  0  0  0  0  0  0
    3.2348   -4.4204   -2.2054 H   0  0  0  0  0  0  0  0  0  0  0  0
    4.6910   -4.6706   -1.2163 H   0  0  0  0  0  0  0  0  0  0  0  0
    4.1654   -3.0068   -1.6615 H   0  0  0  0  0  0  0  0  0  0  0  0
  1 15  2  0  0  0  0
  2 37  1  0  0  0  0
  2 44  1  0  0  0  0
  3 37  2  0  0  0  0
  4 41  1  0  0  0  0
  4 45  1  0  0  0  0
  5 39  2  0  0  0  0
  6 41  2  0  0  0  0
  7 13  1  0  0  0  0
  7 15  1  0  0  0  0
  7 50  1  0  0  0  0
  8 18  1  0  0  0  0
  8 22  1  0  0  0  0
  8 58  1  0  0  0  0
  9 25  1  0  0  0  0
  9 29  1  0  0  0  0
  9 65  1  0  0  0  0
 10 35  2  0  0  0  0
 10 39  1  0  0  0  0
 10 76  1  0  0  0  0
 11 12  1  0  0  0  0
 11 13  1  0  0  0  0
 11 14  1  0  0  0  0
 11 46  1  0  0  0  0
 12 15  1  0  0  0  0
 12 16  1  0  0  0  0
 12 47  1  0  0  0  0
 13 17  2  0  0  0  0
 14 19  1  0  0  0  0
 14 48  1  0  0  0  0
 14 49  1  0  0  0  0
 16 51  1  0  0  0  0
 16 52  1  0  0  0  0
 16 53  1  0  0  0  0
 17 18  1  0  0  0  0
 17 54  1  0  0  0  0
 18 20  2  0  0  0  0
 19 55  1  0  0  0  0
 19 56  1  0  0  0  0
 19 57  1  0  0  0  0
 20 21  1  0  0  0  0
 20 27  1  0  0  0  0
 21 22  2  0  0  0  0
 21 23  1  0  0  0  0
 22 24  1  0  0  0  0
 23 30  1  0  0  0  0
 23 59  1  0  0  0  0
 23 60  1  0  0  0  0
 24 25  2  0  0  0  0
 24 61  1  0  0  0  0
 25 26  1  0  0  0  0
 26 28  2  0  0  0  0
 26 31  1  0  0  0  0
 27 62  1  0  0  0  0
 27 63  1  0  0  0  0
 27 64  1  0  0  0  0
 28 29  1  0  0  0  0
 28 33  1  0  0  0  0
 29 32  2  3  0  0  0
 30 37  1  0  0  0  0
 30 66  1  0  0  0  0
 30 67  1  0  0  0  0
 31 34  1  0  0  0  0
 31 68  1  0  0  0  0
 31 69  1  0  0  0  0
 32 35  1  0  0  0  0
 32 70  1  0  0  0  0
 33 71  1  0  0  0  0
 33 72  1  0  0  0  0
 33 73  1  0  0  0  0
 34 41  1  0  0  0  0
 34 74  1  0  0  0  0
 34 75  1  0  0  0  0
 35 36  1  0  0  0  0
 36 38  2  0  0  0  0
 36 42  1  0  0  0  0
 38 39  1  0  0  0  0
 38 40  1  0  0  0  0
 40 43  1  0  0  0  0
 40 77  1  0  0  0  0
 40 78  1  0  0  0  0
 42 79  1  0  0  0  0
 42 80  1  0  0  0  0
 42 81  1  0  0  0  0
 43 82  1  0  0  0  0
 43 83  1  0  0  0  0
 43 84  1  0  0  0  0
 44 85  1  0  0  0  0
 44 86  1  0  0  0  0
 44 87  1  0  0  0  0
 45 88  1  0  0  0  0
 45 89  1  0  0  0  0
 45 90  1  0  0  0  0
M  CHG  1  10   1
M  END
> <PUBCHEM_COMPOUND_CID>
101416456

> <PUBCHEM_CONFORMER_RMSD>
1.4

> <PUBCHEM_CONFORMER_DIVERSEORDER>
2
59
69
19
187
81
209
145
92
87
60
186
138
86
48
196
71
67
23
101
152
76
102
25
40
193
160
130
58
117
177
63
208
47
202
20
80
140
135
191
12
52
185
183
155
207
120
147
57
125
82
29
14
79
55
154
146
158
73
27
49
54
111
195
93
127
113
170
21
171
109
94
131
65
72
149
90
34
45
173
38
198
75
6
126
85
84
137
199
53
18
121
123
115
51
46
174
189
167
5
128
176
192
168
98
122
70
144
188
74
104
108
10
88
175
106
4
110
62
124
99
13
95
148
100
166
103
36
205
22
83
28
204
33
78
30
44
3
211
206
50
153
15
201
156
179
172
24
142
136
203
17
11
184
7
139
112
143
41
178
56
134
114
182
107
1
133
157
68
180
77
116
200
26
190
105
165
181
162
151
39
42
159
32
31
210
96
141
35
163
97
119
132
61
169
194
37
197
118
9
64
43
161
164
150
66
129
89
8
91
16

> <PUBCHEM_MMFF94_PARTIAL_CHARGES>
48
1 -0.57
10 -0.13
11 0.14
12 0.06
13 -0.03
15 0.57
17 -0.11
18 -0.2
2 -0.43
20 -0.18
21 -0.18
22 -0.2
23 0.18
24 -0.11
25 0.1
26 -0.14
27 0.18
28 -0.14
29 0.1
3 -0.57
30 0.06
31 0.14
32 -0.14
33 0.14
34 0.06
35 0.37
36 -0.12
37 0.66
38 -0.12
39 0.88
4 -0.43
40 0.14
41 0.66
42 0.14
44 0.28
45 0.28
5 -0.57
50 0.37
54 0.15
58 0.27
6 -0.57
61 0.15
65 0.4
7 -0.54
70 0.15
76 0.4
8 0.03
9 -0.6

> <PUBCHEM_EFFECTIVE_ROTOR_COUNT>
13.6

> <PUBCHEM_PHARMACOPHORE_FEATURES>
17
1 1 acceptor
1 10 acceptor
1 10 donor
1 19 hydrophobe
1 3 acceptor
1 43 hydrophobe
1 5 acceptor
1 6 acceptor
1 7 donor
1 8 cation
1 8 donor
1 9 cation
1 9 donor
5 10 35 36 38 39 rings
5 7 11 12 13 15 rings
5 8 18 20 21 22 rings
5 9 25 26 28 29 rings

> <PUBCHEM_HEAVY_ATOM_COUNT>
45

> <PUBCHEM_ATOM_DEF_STEREO_COUNT>
0

> <PUBCHEM_ATOM_UDEF_STEREO_COUNT>
2

> <PUBCHEM_BOND_DEF_STEREO_COUNT>
2

> <PUBCHEM_BOND_UDEF_STEREO_COUNT>
1

> <PUBCHEM_ISOTOPIC_ATOM_COUNT>
0

> <PUBCHEM_COMPONENT_COUNT>
1

> <PUBCHEM_CACTVS_TAUTO_COUNT>
1001

> <PUBCHEM_CONFORMER_ID>
060B7E0800000002

> <PUBCHEM_MMFF94_ENERGY>
118.2173

> <PUBCHEM_FEATURE_SELFOVERLAP>
86.307

> <PUBCHEM_SHAPE_FINGERPRINT>
10985338 8 18340195380504687250
11513181 2 18410294713804622503
13383668 90 17838925933404593910
13947947 63 18190163749823444632
140371 6 17909835336096106339
14068700 686 18264775543652683386
14675019 173 18192991513964255522
14747282 125 18263093123595916647
15781502 589 18410568531097022831
19309040 13 17917155984084921261
21223535 225 18267867358330588964
44249763 50 17985825071794989216
6058803 2 18262782047605336915
6371009 1 17825944007720696524
6608658 132 18192705876973649111

> <PUBCHEM_SHAPE_MULTIPOLES>
870.94
15.47
8.47
2.4
0.14
0
0.93
-21.68
-1.23
0.37
0.93
0.03
0.88
-1.71

> <PUBCHEM_SHAPE_SELFOVERLAP>
1851.586

> <PUBCHEM_SHAPE_VOLUME>
491.3

> <PUBCHEM_COORDINATE_TYPE>
2
5
10

$$$$
