66971432
  -OEChem-02172602573D

 22 24  0     0  0  0  0  0  0999 V2000
    3.5621   -1.5173    1.0887 O   0  0  0  0  0  0  0  0  0  0  0  0
    1.3575   -1.1722    0.5099 N   0  0  0  0  0  0  0  0  0  0  0  0
   -3.1594    0.3249    0.1236 N   0  0  0  0  0  0  0  0  0  0  0  0
    0.6052    2.2115   -0.3188 N   0  0  0  0  0  0  0  0  0  0  0  0
   -0.3802    2.5155    0.5979 N   0  0  0  0  0  0  0  0  0  0  0  0
   -0.8907   -0.4859    0.0047 C   0  0  0  0  0  0  0  0  0  0  0  0
    0.5486   -0.2425    0.1069 C   0  0  0  0  0  0  0  0  0  0  0  0
    1.1026    1.0271   -0.4460 C   0  0  0  0  0  0  0  0  0  0  0  0
   -1.8212    0.5117    0.2085 C   0  0  0  0  0  0  0  0  0  0  0  0
   -1.3591   -1.7577   -0.3308 C   0  0  0  0  0  0  0  0  0  0  0  0
    2.3463    0.8238   -1.2119 C   0  0  0  0  0  0  0  0  0  0  0  0
   -1.4536    1.8129    0.7487 C   0  0  0  0  0  0  0  0  0  0  0  0
   -2.7271   -1.9797   -0.4489 C   0  0  0  0  0  0  0  0  0  0  0  0
    3.1324   -0.1710   -0.7936 C   0  0  0  0  0  0  0  0  0  0  0  0
    2.7149   -0.9870    0.3778 C   0  0  0  0  0  0  0  0  0  0  0  0
   -3.5784   -0.9138   -0.2168 C   0  0  0  0  0  0  0  0  0  0  0  0
   -0.6745   -2.5811   -0.5156 H   0  0  0  0  0  0  0  0  0  0  0  0
    2.6357    1.5176   -1.9894 H   0  0  0  0  0  0  0  0  0  0  0  0
   -2.2137    2.2532    1.4184 H   0  0  0  0  0  0  0  0  0  0  0  0
   -3.1131   -2.9570   -0.7152 H   0  0  0  0  0  0  0  0  0  0  0  0
    4.1055   -0.3555   -1.2318 H   0  0  0  0  0  0  0  0  0  0  0  0
   -4.6540   -1.0335   -0.2929 H   0  0  0  0  0  0  0  0  0  0  0  0
  1 15  2  0  0  0  0
  2  7  2  0  0  0  0
  2 15  1  0  0  0  0
  3  9  1  0  0  0  0
  3 16  2  0  0  0  0
  4  5  1  0  0  0  0
  4  8  2  0  0  0  0
  5 12  2  0  0  0  0
  6  7  1  0  0  0  0
  6  9  2  0  0  0  0
  6 10  1  0  0  0  0
  7  8  1  0  0  0  0
  8 11  1  0  0  0  0
  9 12  1  0  0  0  0
 10 13  2  0  0  0  0
 10 17  1  0  0  0  0
 11 14  2  0  0  0  0
 11 18  1  0  0  0  0
 12 19  1  0  0  0  0
 13 16  1  0  0  0  0
 13 20  1  0  0  0  0
 14 15  1  0  0  0  0
 14 21  1  0  0  0  0
 16 22  1  0  0  0  0
M  END
> <PUBCHEM_COMPOUND_CID>
66971432

> <PUBCHEM_CONFORMER_RMSD>
0.4

> <PUBCHEM_CONFORMER_DIVERSEORDER>
1
2

> <PUBCHEM_MMFF94_PARTIAL_CHARGES>
22
1 -0.57
10 -0.15
11 -0.14
12 0.3
13 -0.15
14 -0.14
15 0.77
16 0.16
17 0.15
18 0.15
19 0.06
2 -0.66
20 0.15
21 0.15
22 0.15
3 -0.62
4 -0.45
5 -0.45
6 0.09
7 0.36
8 0.44
9 0.4

> <PUBCHEM_EFFECTIVE_ROTOR_COUNT>
0

> <PUBCHEM_PHARMACOPHORE_FEATURES>
9
1 1 acceptor
1 2 acceptor
1 2 donor
1 3 acceptor
1 4 acceptor
1 5 acceptor
6 2 7 8 11 14 15 rings
6 3 6 9 10 13 16 rings
7 4 5 6 7 8 9 12 rings

> <PUBCHEM_HEAVY_ATOM_COUNT>
16

> <PUBCHEM_ATOM_DEF_STEREO_COUNT>
0

> <PUBCHEM_ATOM_UDEF_STEREO_COUNT>
0

> <PUBCHEM_BOND_DEF_STEREO_COUNT>
0

> <PUBCHEM_BOND_UDEF_STEREO_COUNT>
0

> <PUBCHEM_ISOTOPIC_ATOM_COUNT>
0

> <PUBCHEM_COMPONENT_COUNT>
1

> <PUBCHEM_CACTVS_TAUTO_COUNT>
1

> <PUBCHEM_CONFORMER_ID>
03FDE72800000001

> <PUBCHEM_MMFF94_ENERGY>
73.3593

> <PUBCHEM_FEATURE_SELFOVERLAP>
47.263

> <PUBCHEM_SHAPE_FINGERPRINT>
10062212 137 18408600345053658115
10130415 120 18410575110733745003
10465860 71 18200051636416561540
10967382 1 18051977218706850711
11578080 2 17970037051108750492
12553582 1 18341337772568987487
13140716 1 18341614853941574931
13538477 17 18409170969844358684
14144814 61 18411141350442295383
14761567 1 17899430949662591846
15001771 113 18411141371969704001
15375462 189 18336276742063076923
16752209 62 18340770321574047701
16945 1 18271532991724625673
18186145 218 13406792211843592614
20510252 161 18059296435558400800
20559304 39 18410293652747090350
20645477 70 17696189584455428927
20871998 184 18059288764646381807
21249577 28 18409171012646338581
21267235 1 18410023147011566559
22112679 90 18410860927748273248
232386 152 18413106169173290806
2334 1 18196654222859506435
23388829 49 18335135350177600930
23402539 116 18201144465196706431
23419403 2 17909786038383017416
23463225 33 18408886204801717790
23552423 10 18049163564288338509
23557571 272 18060422396011185312
23559900 14 18131074792977840236
2748010 2 17979918542474346709
34934 24 18199186372157695316
53812654 25 18342170072552981887
63268167 104 18186804698681578228
6338986 31 18411972585469806630
6992083 37 17974292015062692786
7364860 26 17913207847417292009
74978 22 18268146638046144047
77492 1 18260556597335916046
81228 2 18270972232199257417

> <PUBCHEM_SHAPE_MULTIPOLES>
303.48
5.41
2.32
0.91
0.05
0.86
-0.04
-2.56
-0.25
-0.41
0.3
0.54
-0.01
-1.03

> <PUBCHEM_SHAPE_SELFOVERLAP>
680.034

> <PUBCHEM_SHAPE_VOLUME>
157.5

> <PUBCHEM_COORDINATE_TYPE>
2
5
10

$$$$
