168352420
  -OEChem-02172602273D

 50 56  0     0  0  0  0  0  0999 V2000
    2.5722   -2.2107   -1.4382 S   0  0  0  0  0  0  0  0  0  0  0  0
   -2.1783    3.5301    1.4193 S   0  0  0  0  0  0  0  0  0  0  0  0
   -0.2948   -0.6843    0.0102 C   0  0  0  0  0  0  0  0  0  0  0  0
   -1.2140    0.4041   -0.0171 C   0  0  0  0  0  0  0  0  0  0  0  0
   -2.4238   -1.5499    0.0053 C   0  0  0  0  0  0  0  0  0  0  0  0
   -1.0831   -1.9087    0.0239 C   0  0  0  0  0  0  0  0  0  0  0  0
   -2.5533   -0.1681   -0.0195 C   0  0  0  0  0  0  0  0  0  0  0  0
    1.0699   -0.4675    0.0187 C   0  0  0  0  0  0  0  0  0  0  0  0
   -0.7717    1.7130   -0.0357 C   0  0  0  0  0  0  0  0  0  0  0  0
   -3.4881   -2.4489    0.0105 C   0  0  0  0  0  0  0  0  0  0  0  0
    1.5175    0.8567   -0.0004 C   0  0  0  0  0  0  0  0  0  0  0  0
    0.6088    1.9327   -0.0273 C   0  0  0  0  0  0  0  0  0  0  0  0
   -0.7453   -3.2489    0.0497 C   0  0  0  0  0  0  0  0  0  0  0  0
   -3.8181    0.3893   -0.0407 C   0  0  0  0  0  0  0  0  0  0  0  0
    2.0146   -1.5615    0.0450 C   0  0  0  0  0  0  0  0  0  0  0  0
   -3.1391   -3.8133    0.0367 C   0  0  0  0  0  0  0  0  0  0  0  0
   -4.7750   -1.8764   -0.0112 C   0  0  0  0  0  0  0  0  0  0  0  0
   -1.6590    2.8482   -0.0630 C   0  0  0  0  0  0  0  0  0  0  0  0
   -1.7814   -4.1999    0.0558 C   0  0  0  0  0  0  0  0  0  0  0  0
    2.9356    1.1750    0.0058 C   0  0  0  0  0  0  0  0  0  0  0  0
   -4.9290   -0.4732   -0.0363 C   0  0  0  0  0  0  0  0  0  0  0  0
    2.5728   -2.1994    1.1308 C   0  0  0  0  0  0  0  0  0  0  0  0
   -2.1835    3.5131   -1.1496 C   0  0  0  0  0  0  0  0  0  0  0  0
    3.6057    1.3493    1.2167 C   0  0  0  0  0  0  0  0  0  0  0  0
    3.6263    1.3076   -1.1988 C   0  0  0  0  0  0  0  0  0  0  0  0
    3.4702   -3.2345    0.7401 C   0  0  0  0  0  0  0  0  0  0  0  0
   -3.0224    4.5967   -0.7599 C   0  0  0  0  0  0  0  0  0  0  0  0
    3.5637   -3.3487   -0.6296 C   0  0  0  0  0  0  0  0  0  0  0  0
   -3.1075    4.7187    0.6096 C   0  0  0  0  0  0  0  0  0  0  0  0
    4.9663    1.6562    1.2231 C   0  0  0  0  0  0  0  0  0  0  0  0
    4.9869    1.6144   -1.1924 C   0  0  0  0  0  0  0  0  0  0  0  0
    5.6569    1.7888    0.0185 C   0  0  0  0  0  0  0  0  0  0  0  0
    0.9897    2.9542   -0.0428 H   0  0  0  0  0  0  0  0  0  0  0  0
    0.2745   -3.6056    0.0710 H   0  0  0  0  0  0  0  0  0  0  0  0
   -3.9939    1.4559   -0.0654 H   0  0  0  0  0  0  0  0  0  0  0  0
   -3.9112   -4.5784    0.0426 H   0  0  0  0  0  0  0  0  0  0  0  0
   -5.6586   -2.5096   -0.0091 H   0  0  0  0  0  0  0  0  0  0  0  0
   -1.5324   -5.2583    0.0773 H   0  0  0  0  0  0  0  0  0  0  0  0
   -5.9309   -0.0506   -0.0540 H   0  0  0  0  0  0  0  0  0  0  0  0
    2.3530   -1.9409    2.1592 H   0  0  0  0  0  0  0  0  0  0  0  0
   -1.9795    3.2409   -2.1778 H   0  0  0  0  0  0  0  0  0  0  0  0
    3.0822    1.2495    2.1647 H   0  0  0  0  0  0  0  0  0  0  0  0
    3.1188    1.1789   -2.1520 H   0  0  0  0  0  0  0  0  0  0  0  0
    4.0194   -3.8635    1.4285 H   0  0  0  0  0  0  0  0  0  0  0  0
   -3.5376    5.2531   -1.4490 H   0  0  0  0  0  0  0  0  0  0  0  0
    4.1667   -4.0459   -1.1939 H   0  0  0  0  0  0  0  0  0  0  0  0
   -3.6710    5.4488    1.1732 H   0  0  0  0  0  0  0  0  0  0  0  0
    5.4881    1.7917    2.1659 H   0  0  0  0  0  0  0  0  0  0  0  0
    5.5247    1.7182   -2.1303 H   0  0  0  0  0  0  0  0  0  0  0  0
    6.7163    2.0277    0.0234 H   0  0  0  0  0  0  0  0  0  0  0  0
  1 15  1  0  0  0  0
  1 28  1  0  0  0  0
  2 18  1  0  0  0  0
  2 29  1  0  0  0  0
  3  4  1  0  0  0  0
  3  6  1  0  0  0  0
  3  8  2  0  0  0  0
  4  7  1  0  0  0  0
  4  9  2  0  0  0  0
  5  6  1  0  0  0  0
  5  7  1  0  0  0  0
  5 10  2  0  0  0  0
  6 13  2  0  0  0  0
  7 14  2  0  0  0  0
  8 11  1  0  0  0  0
  8 15  1  0  0  0  0
  9 12  1  0  0  0  0
  9 18  1  0  0  0  0
 10 16  1  0  0  0  0
 10 17  1  0  0  0  0
 11 12  2  0  0  0  0
 11 20  1  0  0  0  0
 12 33  1  0  0  0  0
 13 19  1  0  0  0  0
 13 34  1  0  0  0  0
 14 21  1  0  0  0  0
 14 35  1  0  0  0  0
 15 22  2  0  0  0  0
 16 19  2  0  0  0  0
 16 36  1  0  0  0  0
 17 21  2  0  0  0  0
 17 37  1  0  0  0  0
 18 23  2  0  0  0  0
 19 38  1  0  0  0  0
 20 24  2  0  0  0  0
 20 25  1  0  0  0  0
 21 39  1  0  0  0  0
 22 26  1  0  0  0  0
 22 40  1  0  0  0  0
 23 27  1  0  0  0  0
 23 41  1  0  0  0  0
 24 30  1  0  0  0  0
 24 42  1  0  0  0  0
 25 31  2  0  0  0  0
 25 43  1  0  0  0  0
 26 28  2  0  0  0  0
 26 44  1  0  0  0  0
 27 29  2  0  0  0  0
 27 45  1  0  0  0  0
 28 46  1  0  0  0  0
 29 47  1  0  0  0  0
 30 32  2  0  0  0  0
 30 48  1  0  0  0  0
 31 32  1  0  0  0  0
 31 49  1  0  0  0  0
 32 50  1  0  0  0  0
M  END
> <PUBCHEM_COMPOUND_CID>
168352420

> <PUBCHEM_CONFORMER_RMSD>
0.8

> <PUBCHEM_CONFORMER_DIVERSEORDER>
1
2

> <PUBCHEM_MMFF94_PARTIAL_CHARGES>
42
1 -0.08
12 -0.15
13 -0.15
14 -0.15
15 -0.01
16 -0.15
17 -0.15
18 -0.01
19 -0.15
2 -0.08
21 -0.15
22 -0.15
23 -0.15
24 -0.15
25 -0.15
26 -0.15
27 -0.15
28 -0.11
29 -0.11
30 -0.15
31 -0.15
32 -0.15
33 0.15
34 0.15
35 0.15
36 0.15
37 0.15
38 0.15
39 0.15
40 0.15
41 0.15
42 0.15
43 0.15
44 0.15
45 0.15
46 0.15
47 0.15
48 0.15
49 0.15
50 0.15
8 0.05
9 0.05

> <PUBCHEM_EFFECTIVE_ROTOR_COUNT>
3

> <PUBCHEM_PHARMACOPHORE_FEATURES>
7
5 1 15 22 26 28 rings
5 2 18 23 27 29 rings
5 3 4 5 6 7 rings
6 20 24 25 30 31 32 rings
6 3 4 8 9 11 12 rings
6 5 6 10 13 16 19 rings
6 5 7 10 14 17 21 rings

> <PUBCHEM_HEAVY_ATOM_COUNT>
32

> <PUBCHEM_ATOM_DEF_STEREO_COUNT>
0

> <PUBCHEM_ATOM_UDEF_STEREO_COUNT>
0

> <PUBCHEM_BOND_DEF_STEREO_COUNT>
0

> <PUBCHEM_BOND_UDEF_STEREO_COUNT>
0

> <PUBCHEM_ISOTOPIC_ATOM_COUNT>
0

> <PUBCHEM_COMPONENT_COUNT>
1

> <PUBCHEM_CACTVS_TAUTO_COUNT>
-1

> <PUBCHEM_CONFORMER_ID>
0A08DAA400000001

> <PUBCHEM_MMFF94_ENERGY>
122.1545

> <PUBCHEM_FEATURE_SELFOVERLAP>
35.833

> <PUBCHEM_SHAPE_FINGERPRINT>
10032420 55 17391605041733543291
10050765 1 18338234839154773644
10675989 125 18336255744321881799
10906281 52 18116727393957667546
10930396 42 17692502909325389120
10940486 97 18118972391123456974
1100329 8 17907579134046639016
11513181 2 18272930488294675679
11578080 2 17314767669144770774
12236239 1 17677885932883195668
12553582 1 18194112139159888159
12788726 201 18261948639138997329
12930653 34 18412537717873451164
13140716 1 18051126192259484824
13617811 41 18262807375074395245
13692114 37 18049993408385197393
138480 1 16537075110405809181
13911987 19 17900552473013695252
140371 6 18336270149209539477
14081887 123 18339918311541766944
14178342 30 18409441501751282048
14223421 5 18412260632062848322
14466204 15 18050563250990813898
14790565 3 18122633755816503777
14955137 171 17831033668657190779
15042514 8 18266177416598727657
16087824 20 18410012174635734517
16112460 7 18127984022721663825
19591789 44 18194407688881389465
20028762 73 17480303809062607878
20642791 178 18047479928782128900
20691752 17 17241337850345980180
20905425 154 18413394254563833318
21421861 104 18187075140299113530
21796203 349 17323833391206804930
22311459 1 18338234972061707804
22393880 68 18341343184776134348
22440779 20 17033102528188317026
23558518 356 18261958440148559427
23559900 14 18412549825412600182
23576562 1 17971770869123408852
266924 87 18410569578826333069
283562 15 18265336282125669744
335352 9 18122061168462950807
3380486 145 18193289691736010155
340366 18 17901393294693190284
34934 24 18339358690130458351
350125 39 18265901258780992912
3886686 26 17977633478466106674
4409770 3 18262218007193938837
460360 51 18264210205824351272
463206 1 18047473614679589603
469060 322 18336838579494219425
59755656 215 18340210782273227958
6004065 56 17693366055273625695
653340 110 18411415090235926473

> <PUBCHEM_SHAPE_MULTIPOLES>
666.24
9.84
6.61
1.09
6.04
1.35
0
2.04
-0.04
-5.17
0.1
0.82
0.48
0.12

> <PUBCHEM_SHAPE_SELFOVERLAP>
1527.131

> <PUBCHEM_SHAPE_VOLUME>
346

> <PUBCHEM_COORDINATE_TYPE>
2
5
10

$$$$
