24762836
  -OEChem-02172602583D

 37 38  0     1  0  0  0  0  0999 V2000
    3.8532   -0.4867    0.5782 O   0  0  0  0  0  0  0  0  0  0  0  0
    0.4160   -1.5060   -1.6096 O   0  0  0  0  0  0  0  0  0  0  0  0
    6.0259    0.1512    0.6952 O   0  0  0  0  0  0  0  0  0  0  0  0
   -4.9941    2.5998    0.3285 O   0  0  0  0  0  0  0  0  0  0  0  0
    1.5963   -1.2931    0.4703 C   0  0  0  0  0  0  0  0  0  0  0  0
    0.2321   -1.2190   -0.2260 C   0  0  2  0  0  0  0  0  0  0  0  0
    2.6101   -0.3373   -0.1422 C   0  0  1  0  0  0  0  0  0  0  0  0
   -0.7449   -2.2310    0.3926 C   0  0  0  0  0  0  0  0  0  0  0  0
    2.1260    1.1050   -0.0787 C   0  0  0  0  0  0  0  0  0  0  0  0
   -2.1390   -2.2512   -0.2508 C   0  0  0  0  0  0  0  0  0  0  0  0
   -2.9002   -0.9587   -0.0962 C   0  0  0  0  0  0  0  0  0  0  0  0
    3.2452    2.0077   -0.4729 C   0  0  0  0  0  0  0  0  0  0  0  0
    4.8732    0.3826    0.3475 C   0  0  0  0  0  0  0  0  0  0  0  0
    4.5239    1.6552   -0.3106 C   0  0  0  0  0  0  0  0  0  0  0  0
   -3.7248   -0.7626    1.0117 C   0  0  0  0  0  0  0  0  0  0  0  0
   -2.7793    0.0410   -1.0613 C   0  0  0  0  0  0  0  0  0  0  0  0
   -4.4286    0.4332    1.1543 C   0  0  0  0  0  0  0  0  0  0  0  0
   -3.4831    1.2368   -0.9189 C   0  0  0  0  0  0  0  0  0  0  0  0
   -4.3077    1.4329    0.1889 C   0  0  0  0  0  0  0  0  0  0  0  0
    1.4869   -1.0882    1.5430 H   0  0  0  0  0  0  0  0  0  0  0  0
    2.0014   -2.3115    0.3993 H   0  0  0  0  0  0  0  0  0  0  0  0
   -0.1813   -0.2124   -0.1342 H   0  0  0  0  0  0  0  0  0  0  0  0
    2.8097   -0.6315   -1.1813 H   0  0  0  0  0  0  0  0  0  0  0  0
   -0.8427   -2.0301    1.4668 H   0  0  0  0  0  0  0  0  0  0  0  0
   -0.3262   -3.2407    0.2910 H   0  0  0  0  0  0  0  0  0  0  0  0
    1.7925    1.3789    0.9289 H   0  0  0  0  0  0  0  0  0  0  0  0
    1.2931    1.2655   -0.7708 H   0  0  0  0  0  0  0  0  0  0  0  0
   -2.7239   -3.0654    0.1965 H   0  0  0  0  0  0  0  0  0  0  0  0
   -2.0598   -2.5046   -1.3157 H   0  0  0  0  0  0  0  0  0  0  0  0
    3.0038    2.9767   -0.8986 H   0  0  0  0  0  0  0  0  0  0  0  0
    0.7628   -2.4115   -1.6840 H   0  0  0  0  0  0  0  0  0  0  0  0
    5.3303    2.3234   -0.5894 H   0  0  0  0  0  0  0  0  0  0  0  0
   -3.8254   -1.5331    1.7715 H   0  0  0  0  0  0  0  0  0  0  0  0
   -2.1451   -0.0997   -1.9323 H   0  0  0  0  0  0  0  0  0  0  0  0
   -5.0688    0.5806    2.0197 H   0  0  0  0  0  0  0  0  0  0  0  0
   -3.3811    2.0073   -1.6783 H   0  0  0  0  0  0  0  0  0  0  0  0
   -4.7928    3.1762   -0.4288 H   0  0  0  0  0  0  0  0  0  0  0  0
  1  7  1  0  0  0  0
  1 13  1  0  0  0  0
  2  6  1  0  0  0  0
  2 31  1  0  0  0  0
  3 13  2  0  0  0  0
  4 19  1  0  0  0  0
  4 37  1  0  0  0  0
  5  6  1  0  0  0  0
  5  7  1  0  0  0  0
  5 20  1  0  0  0  0
  5 21  1  0  0  0  0
  6  8  1  0  0  0  0
  6 22  1  0  0  0  0
  7  9  1  0  0  0  0
  7 23  1  0  0  0  0
  8 10  1  0  0  0  0
  8 24  1  0  0  0  0
  8 25  1  0  0  0  0
  9 12  1  0  0  0  0
  9 26  1  0  0  0  0
  9 27  1  0  0  0  0
 10 11  1  0  0  0  0
 10 28  1  0  0  0  0
 10 29  1  0  0  0  0
 11 15  2  0  0  0  0
 11 16  1  0  0  0  0
 12 14  2  0  0  0  0
 12 30  1  0  0  0  0
 13 14  1  0  0  0  0
 14 32  1  0  0  0  0
 15 17  1  0  0  0  0
 15 33  1  0  0  0  0
 16 18  2  0  0  0  0
 16 34  1  0  0  0  0
 17 19  2  0  0  0  0
 17 35  1  0  0  0  0
 18 19  1  0  0  0  0
 18 36  1  0  0  0  0
M  END
> <PUBCHEM_COMPOUND_CID>
24762836

> <PUBCHEM_CONFORMER_RMSD>
0.8

> <PUBCHEM_CONFORMER_DIVERSEORDER>
1
81
34
44
101
20
86
95
87
52
22
56
32
4
94
19
97
58
28
54
68
106
100
38
11
96
85
82
6
84
109
14
99
21
108
115
73
63
112
113
50
67
66
92
43
62
88
31
103
89
16
33
46
78
36
110
23
59
7
107
30
29
35
80
15
64
70
37
12
55
24
42
69
39
3
111
102
9
5
60
49
48
71
26
77
74
90
91
65
105
45
27
18
41
25
40
76
2
10
104
53
47
93
75
17
98
51
72
57
8
114
83
13
79
61

> <PUBCHEM_MMFF94_PARTIAL_CHARGES>
25
1 -0.43
10 0.14
11 -0.14
12 -0.29
13 0.71
14 -0.14
15 -0.15
16 -0.15
17 -0.15
18 -0.15
19 0.08
2 -0.68
3 -0.57
30 0.15
31 0.4
32 0.15
33 0.15
34 0.15
35 0.15
36 0.15
37 0.45
4 -0.53
6 0.28
7 0.28
9 0.14

> <PUBCHEM_EFFECTIVE_ROTOR_COUNT>
5.6

> <PUBCHEM_PHARMACOPHORE_FEATURES>
6
1 2 acceptor
1 2 donor
1 3 acceptor
1 4 donor
6 1 7 9 12 13 14 rings
6 11 15 16 17 18 19 rings

> <PUBCHEM_HEAVY_ATOM_COUNT>
19

> <PUBCHEM_ATOM_DEF_STEREO_COUNT>
2

> <PUBCHEM_ATOM_UDEF_STEREO_COUNT>
0

> <PUBCHEM_BOND_DEF_STEREO_COUNT>
0

> <PUBCHEM_BOND_UDEF_STEREO_COUNT>
0

> <PUBCHEM_ISOTOPIC_ATOM_COUNT>
0

> <PUBCHEM_COMPONENT_COUNT>
1

> <PUBCHEM_CACTVS_TAUTO_COUNT>
2

> <PUBCHEM_CONFORMER_ID>
0179D9D400000001

> <PUBCHEM_MMFF94_ENERGY>
42.53

> <PUBCHEM_FEATURE_SELFOVERLAP>
30.447

> <PUBCHEM_SHAPE_FINGERPRINT>
105312 117 17274825795946303238
11046707 91 7853577906799076047
11370993 144 18114462271018559275
11552529 35 16880204570067632546
12107183 9 18191577563142550034
12596602 18 16660928893030705753
12633257 1 18187917361541354060
12670546 177 13254793551298385394
13103583 49 12540983937215755757
13177829 73 18412823577832169816
13583140 156 16877929538780701247
14123255 352 18411699885295748589
14251732 17 18343584032101357198
14251764 30 14345787220055846360
14576447 43 10087641503175626472
15188451 53 15936981854954899035
15209294 21 18260829314800671551
15880784 105 13334746751119781215
1601671 61 18410854374350755580
17834072 32 18410856538534341669
193927 3 11314310520600177074
200 152 9295294945240388206
20621476 66 18411425024890881864
20871999 31 11887959834946837955
21421861 104 17822840976181261362
21864079 5 18410856530033986927
22182937 141 18409736192146845987
23227448 37 18341052995120791207
23402539 116 15051739707209443090
23559900 14 18272654511561957182
270888 7 18270398270540974505
27216 239 18334018302699528427
2838139 119 18272644649572915649
46194498 28 13470099901412211873
474 4 18340767040371910303
5104073 3 18188201130742868464
54446538 1 18410009978657232593
6328613 192 18261678177329059732
633830 44 18411698764235873526
7226269 152 18202562882731523264
7808743 9 18412824677427998801

> <PUBCHEM_SHAPE_MULTIPOLES>
367.53
12.28
2.46
1.03
7.02
0.24
-0.13
7.06
2.82
-1.58
-0.14
-0.58
-0.1
-0.38

> <PUBCHEM_SHAPE_SELFOVERLAP>
764.982

> <PUBCHEM_SHAPE_VOLUME>
207.9

> <PUBCHEM_COORDINATE_TYPE>
2
5
10

$$$$
