5312413
  -OEChem-02172602553D

 48 47  0     0  0  0  0  0  0999 V2000
   -6.2201   -0.5965   -0.1384 O   0  0  0  0  0  0  0  0  0  0  0  0
   -4.6145    0.9421   -0.6201 O   0  0  0  0  0  0  0  0  0  0  0  0
    0.8999   -2.7690    0.6797 C   0  0  0  0  0  0  0  0  0  0  0  0
    2.3600   -2.3131    0.6277 C   0  0  0  0  0  0  0  0  0  0  0  0
   -0.0900   -1.6812    0.2488 C   0  0  0  0  0  0  0  0  0  0  0  0
    2.8352   -1.9601   -0.7862 C   0  0  0  0  0  0  0  0  0  0  0  0
   -1.5730   -2.0499    0.3706 C   0  0  0  0  0  0  0  0  0  0  0  0
    4.3166   -1.5868   -0.9145 C   0  0  0  0  0  0  0  0  0  0  0  0
   -2.5178   -0.9054   -0.0127 C   0  0  0  0  0  0  0  0  0  0  0  0
    4.7223   -0.4006   -0.0364 C   0  0  0  0  0  0  0  0  0  0  0  0
   -3.9900   -1.2975    0.1186 C   0  0  0  0  0  0  0  0  0  0  0  0
    3.9338    0.8292   -0.3825 C   0  0  0  0  0  0  0  0  0  0  0  0
    2.3433    2.6965    0.1453 C   0  0  0  0  0  0  0  0  0  0  0  0
    0.8323    2.5038    0.3072 C   0  0  0  0  0  0  0  0  0  0  0  0
    3.1295    1.4632    0.4837 C   0  0  0  0  0  0  0  0  0  0  0  0
    0.0288    3.7665   -0.0140 C   0  0  0  0  0  0  0  0  0  0  0  0
   -4.9332   -0.1773   -0.2484 C   0  0  0  0  0  0  0  0  0  0  0  0
   -1.4630    3.5362    0.1716 C   0  0  0  0  0  0  0  0  0  0  0  0
    0.7666   -3.6547    0.0471 H   0  0  0  0  0  0  0  0  0  0  0  0
    0.6672   -3.0761    1.7066 H   0  0  0  0  0  0  0  0  0  0  0  0
    2.9909   -3.1180    1.0241 H   0  0  0  0  0  0  0  0  0  0  0  0
    2.4821   -1.4567    1.2987 H   0  0  0  0  0  0  0  0  0  0  0  0
    0.0962   -0.7808    0.8479 H   0  0  0  0  0  0  0  0  0  0  0  0
    0.0974   -1.4061   -0.7952 H   0  0  0  0  0  0  0  0  0  0  0  0
    2.6514   -2.8220   -1.4406 H   0  0  0  0  0  0  0  0  0  0  0  0
    2.2311   -1.1423   -1.1931 H   0  0  0  0  0  0  0  0  0  0  0  0
   -1.7804   -2.3555    1.4034 H   0  0  0  0  0  0  0  0  0  0  0  0
   -1.7779   -2.9200   -0.2650 H   0  0  0  0  0  0  0  0  0  0  0  0
    4.9308   -2.4534   -0.6411 H   0  0  0  0  0  0  0  0  0  0  0  0
    4.5375   -1.3650   -1.9661 H   0  0  0  0  0  0  0  0  0  0  0  0
   -2.3128   -0.0346    0.6227 H   0  0  0  0  0  0  0  0  0  0  0  0
   -2.3127   -0.5925   -1.0442 H   0  0  0  0  0  0  0  0  0  0  0  0
    5.7848   -0.1854   -0.2018 H   0  0  0  0  0  0  0  0  0  0  0  0
    4.6241   -0.6566    1.0245 H   0  0  0  0  0  0  0  0  0  0  0  0
   -4.2006   -2.1479   -0.5398 H   0  0  0  0  0  0  0  0  0  0  0  0
   -4.1998   -1.5905    1.1535 H   0  0  0  0  0  0  0  0  0  0  0  0
    4.0395    1.2124   -1.3943 H   0  0  0  0  0  0  0  0  0  0  0  0
    2.5575    3.0210   -0.8806 H   0  0  0  0  0  0  0  0  0  0  0  0
    2.6780    3.5058    0.8056 H   0  0  0  0  0  0  0  0  0  0  0  0
    0.4994    1.6878   -0.3474 H   0  0  0  0  0  0  0  0  0  0  0  0
    0.6141    2.1892    1.3360 H   0  0  0  0  0  0  0  0  0  0  0  0
    3.0317    1.0855    1.4983 H   0  0  0  0  0  0  0  0  0  0  0  0
    0.2217    4.0756   -1.0477 H   0  0  0  0  0  0  0  0  0  0  0  0
    0.3516    4.5871    0.6370 H   0  0  0  0  0  0  0  0  0  0  0  0
   -1.8220    2.7392   -0.4877 H   0  0  0  0  0  0  0  0  0  0  0  0
   -1.6914    3.2555    1.2048 H   0  0  0  0  0  0  0  0  0  0  0  0
   -2.0197    4.4486   -0.0638 H   0  0  0  0  0  0  0  0  0  0  0  0
   -6.8565    0.1083   -0.3845 H   0  0  0  0  0  0  0  0  0  0  0  0
  1 17  1  0  0  0  0
  1 48  1  0  0  0  0
  2 17  2  0  0  0  0
  3  4  1  0  0  0  0
  3  5  1  0  0  0  0
  3 19  1  0  0  0  0
  3 20  1  0  0  0  0
  4  6  1  0  0  0  0
  4 21  1  0  0  0  0
  4 22  1  0  0  0  0
  5  7  1  0  0  0  0
  5 23  1  0  0  0  0
  5 24  1  0  0  0  0
  6  8  1  0  0  0  0
  6 25  1  0  0  0  0
  6 26  1  0  0  0  0
  7  9  1  0  0  0  0
  7 27  1  0  0  0  0
  7 28  1  0  0  0  0
  8 10  1  0  0  0  0
  8 29  1  0  0  0  0
  8 30  1  0  0  0  0
  9 11  1  0  0  0  0
  9 31  1  0  0  0  0
  9 32  1  0  0  0  0
 10 12  1  0  0  0  0
 10 33  1  0  0  0  0
 10 34  1  0  0  0  0
 11 17  1  0  0  0  0
 11 35  1  0  0  0  0
 11 36  1  0  0  0  0
 12 15  2  0  0  0  0
 12 37  1  0  0  0  0
 13 14  1  0  0  0  0
 13 15  1  0  0  0  0
 13 38  1  0  0  0  0
 13 39  1  0  0  0  0
 14 16  1  0  0  0  0
 14 40  1  0  0  0  0
 14 41  1  0  0  0  0
 15 42  1  0  0  0  0
 16 18  1  0  0  0  0
 16 43  1  0  0  0  0
 16 44  1  0  0  0  0
 18 45  1  0  0  0  0
 18 46  1  0  0  0  0
 18 47  1  0  0  0  0
M  END
> <PUBCHEM_COMPOUND_CID>
5312413

> <PUBCHEM_CONFORMER_RMSD>
1.4

> <PUBCHEM_CONFORMER_DIVERSEORDER>
2
1
29
35
48
28
4
31
19
17
7
3
8
49
45
38
40
12
5
10
18
34
33
36
6
42
24
23
39
37
41
15
44
22
46
21
32
13
26
11
25
14
47
16
27
30
43
20
9

> <PUBCHEM_MMFF94_PARTIAL_CHARGES>
11
1 -0.65
10 0.14
11 0.06
12 -0.29
13 0.14
15 -0.29
17 0.66
2 -0.57
37 0.15
42 0.15
48 0.5

> <PUBCHEM_EFFECTIVE_ROTOR_COUNT>
13

> <PUBCHEM_PHARMACOPHORE_FEATURES>
5
1 1 acceptor
1 18 hydrophobe
1 2 acceptor
3 1 2 17 anion
4 13 14 15 16 hydrophobe

> <PUBCHEM_HEAVY_ATOM_COUNT>
18

> <PUBCHEM_ATOM_DEF_STEREO_COUNT>
0

> <PUBCHEM_ATOM_UDEF_STEREO_COUNT>
0

> <PUBCHEM_BOND_DEF_STEREO_COUNT>
1

> <PUBCHEM_BOND_UDEF_STEREO_COUNT>
0

> <PUBCHEM_ISOTOPIC_ATOM_COUNT>
0

> <PUBCHEM_COMPONENT_COUNT>
1

> <PUBCHEM_CACTVS_TAUTO_COUNT>
1

> <PUBCHEM_CONFORMER_ID>
00510F9D00000002

> <PUBCHEM_MMFF94_ENERGY>
0.3303

> <PUBCHEM_FEATURE_SELFOVERLAP>
25.429

> <PUBCHEM_SHAPE_FINGERPRINT>
116883 192 18412268324613207936
12769317 202 18261381235262557823
13402501 40 18408601491593531380
14251757 17 18261099734816515965
14681490 219 18412258441803899677
14931854 50 18337116678863096428
15003188 8 18055341694592645088
15210252 30 18041288772122226044
17093844 170 18339637949405048608
20567600 299 18055631973861805104
20621476 13 18194966463921228184
221357 26 18341054021438997270
22289505 5 18411420601084999830
3014063 31 18410855443101533284
338550 245 18263374602699536165
3524813 1 18113891672002658398
5939293 188 18266737077340475402
6443956 14 18337393841534736556

> <PUBCHEM_SHAPE_MULTIPOLES>
358.69
10.95
4.8
0.8
12.28
4.4
0.03
-3.15
2.27
-1.37
-0.58
-0.35
-0.23
0.58

> <PUBCHEM_SHAPE_SELFOVERLAP>
658.45

> <PUBCHEM_SHAPE_VOLUME>
226.3

> <PUBCHEM_COORDINATE_TYPE>
2
5
10

$$$$
