54682983
  -OEChem-02172602413D

 45 48  0     0  0  0  0  0  0999 V2000
    2.2209    1.3725    0.1900 O   0  0  0  0  0  0  0  0  0  0  0  0
   -0.7210   -2.3199    0.0292 O   0  0  0  0  0  0  0  0  0  0  0  0
    1.6963   -2.7465   -0.1322 O   0  0  0  0  0  0  0  0  0  0  0  0
   -1.5962   -0.1431   -0.0039 N   0  0  0  0  0  0  0  0  0  0  0  0
   -1.3519    1.2484   -0.0165 C   0  0  0  0  0  0  0  0  0  0  0  0
   -2.5434    2.1845   -0.2010 C   0  0  0  0  0  0  0  0  0  0  0  0
   -2.1837    3.5917   -0.6815 C   0  0  0  0  0  0  0  0  0  0  0  0
   -1.0455    4.1506    0.1513 C   0  0  0  0  0  0  0  0  0  0  0  0
    0.1855    3.2615    0.0216 C   0  0  0  0  0  0  0  0  0  0  0  0
   -0.1115    1.7796    0.0407 C   0  0  0  0  0  0  0  0  0  0  0  0
    1.0900    0.9081    0.0982 C   0  0  0  0  0  0  0  0  0  0  0  0
    0.8195   -0.5392    0.0164 C   0  0  0  0  0  0  0  0  0  0  0  0
   -0.5569   -1.0989   -0.0010 C   0  0  0  0  0  0  0  0  0  0  0  0
   -2.9329   -0.6859    0.0327 C   0  0  0  0  0  0  0  0  0  0  0  0
    1.8649   -1.3786   -0.0323 C   0  0  0  0  0  0  0  0  0  0  0  0
   -3.7792   -0.3837    1.0996 C   0  0  0  0  0  0  0  0  0  0  0  0
   -3.3785   -1.5126   -0.9984 C   0  0  0  0  0  0  0  0  0  0  0  0
    3.2691   -0.9277   -0.0063 C   0  0  0  0  0  0  0  0  0  0  0  0
   -5.0711   -0.9084    1.1354 C   0  0  0  0  0  0  0  0  0  0  0  0
   -4.6704   -2.0373   -0.9628 C   0  0  0  0  0  0  0  0  0  0  0  0
   -5.5167   -1.7353    0.1041 C   0  0  0  0  0  0  0  0  0  0  0  0
    3.9331   -0.7844    1.2120 C   0  0  0  0  0  0  0  0  0  0  0  0
    3.9329   -0.6446   -1.1998 C   0  0  0  0  0  0  0  0  0  0  0  0
    5.2610   -0.3580    1.2368 C   0  0  0  0  0  0  0  0  0  0  0  0
    5.2607   -0.2182   -1.1752 C   0  0  0  0  0  0  0  0  0  0  0  0
    5.9248   -0.0748    0.0430 C   0  0  0  0  0  0  0  0  0  0  0  0
   -3.2470    1.7710   -0.9333 H   0  0  0  0  0  0  0  0  0  0  0  0
   -3.0716    2.2765    0.7554 H   0  0  0  0  0  0  0  0  0  0  0  0
   -1.8950    3.5638   -1.7398 H   0  0  0  0  0  0  0  0  0  0  0  0
   -3.0619    4.2428   -0.6055 H   0  0  0  0  0  0  0  0  0  0  0  0
   -1.3517    4.2097    1.2034 H   0  0  0  0  0  0  0  0  0  0  0  0
   -0.8036    5.1704   -0.1682 H   0  0  0  0  0  0  0  0  0  0  0  0
    0.6935    3.4963   -0.9229 H   0  0  0  0  0  0  0  0  0  0  0  0
    0.8798    3.5183    0.8310 H   0  0  0  0  0  0  0  0  0  0  0  0
   -3.4423    0.2401    1.9234 H   0  0  0  0  0  0  0  0  0  0  0  0
   -2.7359   -1.7488   -1.8428 H   0  0  0  0  0  0  0  0  0  0  0  0
   -5.7283   -0.6774    1.9685 H   0  0  0  0  0  0  0  0  0  0  0  0
   -5.0183   -2.6792   -1.7669 H   0  0  0  0  0  0  0  0  0  0  0  0
   -6.5224   -2.1444    0.1322 H   0  0  0  0  0  0  0  0  0  0  0  0
    0.7818   -2.9693   -0.3562 H   0  0  0  0  0  0  0  0  0  0  0  0
    3.4290   -1.0015    2.1506 H   0  0  0  0  0  0  0  0  0  0  0  0
    3.4287   -0.7516   -2.1572 H   0  0  0  0  0  0  0  0  0  0  0  0
    5.7780   -0.2462    2.1853 H   0  0  0  0  0  0  0  0  0  0  0  0
    5.7776    0.0025   -2.1046 H   0  0  0  0  0  0  0  0  0  0  0  0
    6.9587    0.2574    0.0622 H   0  0  0  0  0  0  0  0  0  0  0  0
  1 11  2  0  0  0  0
  2 13  2  0  0  0  0
  3 15  1  0  0  0  0
  3 40  1  0  0  0  0
  4  5  1  0  0  0  0
  4 13  1  0  0  0  0
  4 14  1  0  0  0  0
  5  6  1  0  0  0  0
  5 10  2  0  0  0  0
  6  7  1  0  0  0  0
  6 27  1  0  0  0  0
  6 28  1  0  0  0  0
  7  8  1  0  0  0  0
  7 29  1  0  0  0  0
  7 30  1  0  0  0  0
  8  9  1  0  0  0  0
  8 31  1  0  0  0  0
  8 32  1  0  0  0  0
  9 10  1  0  0  0  0
  9 33  1  0  0  0  0
  9 34  1  0  0  0  0
 10 11  1  0  0  0  0
 11 12  1  0  0  0  0
 12 13  1  0  0  0  0
 12 15  2  0  0  0  0
 14 16  2  0  0  0  0
 14 17  1  0  0  0  0
 15 18  1  0  0  0  0
 16 19  1  0  0  0  0
 16 35  1  0  0  0  0
 17 20  2  0  0  0  0
 17 36  1  0  0  0  0
 18 22  2  0  0  0  0
 18 23  1  0  0  0  0
 19 21  2  0  0  0  0
 19 37  1  0  0  0  0
 20 21  1  0  0  0  0
 20 38  1  0  0  0  0
 21 39  1  0  0  0  0
 22 24  1  0  0  0  0
 22 41  1  0  0  0  0
 23 25  2  0  0  0  0
 23 42  1  0  0  0  0
 24 26  2  0  0  0  0
 24 43  1  0  0  0  0
 25 26  1  0  0  0  0
 25 44  1  0  0  0  0
 26 45  1  0  0  0  0
M  END
> <PUBCHEM_COMPOUND_CID>
54682983

> <PUBCHEM_CONFORMER_RMSD>
0.6

> <PUBCHEM_CONFORMER_DIVERSEORDER>
1
2
3

> <PUBCHEM_MMFF94_PARTIAL_CHARGES>
35
1 -0.57
10 -0.12
11 0.54
12 0.03
13 0.62
14 0.12
15 0.05
16 -0.15
17 -0.15
18 0.03
19 -0.15
2 -0.57
20 -0.15
21 -0.15
22 -0.15
23 -0.15
24 -0.15
25 -0.15
26 -0.15
3 -0.53
35 0.15
36 0.15
37 0.15
38 0.15
39 0.15
4 -0.29
40 0.45
41 0.15
42 0.15
43 0.15
44 0.15
45 0.15
5 -0.03
6 0.14
9 0.14

> <PUBCHEM_EFFECTIVE_ROTOR_COUNT>
3

> <PUBCHEM_PHARMACOPHORE_FEATURES>
7
1 1 acceptor
1 2 acceptor
1 3 donor
6 14 16 17 19 20 21 rings
6 18 22 23 24 25 26 rings
6 4 5 10 11 12 13 rings
6 5 6 7 8 9 10 rings

> <PUBCHEM_HEAVY_ATOM_COUNT>
26

> <PUBCHEM_ATOM_DEF_STEREO_COUNT>
0

> <PUBCHEM_ATOM_UDEF_STEREO_COUNT>
0

> <PUBCHEM_BOND_DEF_STEREO_COUNT>
1

> <PUBCHEM_BOND_UDEF_STEREO_COUNT>
0

> <PUBCHEM_ISOTOPIC_ATOM_COUNT>
0

> <PUBCHEM_COMPONENT_COUNT>
1

> <PUBCHEM_CACTVS_TAUTO_COUNT>
11

> <PUBCHEM_CONFORMER_ID>
0342656700000001

> <PUBCHEM_MMFF94_ENERGY>
97.988

> <PUBCHEM_FEATURE_SELFOVERLAP>
35.541

> <PUBCHEM_SHAPE_FINGERPRINT>
10319926 262 18124572238588795186
10366900 7 18261116291662273738
10411042 1 18410571829462944973
10498660 4 18339080363944641164
10670039 82 18335433322793596150
10906281 52 18337128828919797002
1100329 8 18265333004654361059
11014199 57 18055348308684395575
11265709 11 18410575115049889209
11963148 33 18409162251194097730
12166972 35 17676488396988918526
12236239 1 17749107773577422074
12293681 4 18187376449308112171
12422481 6 17845948363493863111
12516196 113 18410575123587219243
12553582 1 18410854386666263503
12741549 16 17603579764562630669
12788726 201 18261108552173196594
13140716 1 18192713564553879714
13782708 43 17774727463967771774
138480 1 15240602385589168493
13862211 1 18410289241773791210
13911987 19 18114749325163432911
14117953 113 18343862230466674247
14178342 30 18192142699365582656
14347332 77 18267872688100465302
14787075 74 18187087277665532546
14790565 3 18339094755768471024
15131766 46 14547581791291687674
15484559 13 14672009472306644974
16087824 20 18266176138060490021
17349148 13 17967538956421251662
17492 89 18192147101771241674
1813 80 18342468062016458687
18222031 100 18341890835470705135
19427546 62 17400643719072881893
19591789 44 18411420643528315784
20028762 73 18059292192326625463
21033650 10 18119837749734745510
21049683 271 18043823193452462509
21236236 1 18410856516700705128
21267235 1 18411707611762929782
2132832 1 18113341920621258268
21360443 126 18043806494999911085
21641784 216 18041575671257497036
21796203 349 17975451123604285201
22182313 1 18129386990467221502
2260408 40 17415597352336494987
23402539 116 18413384345604750447
23557571 272 18271537403020003526
23558518 356 18044942255523605794
23559900 14 18195239156259517843
23569914 2 15765796492501830066
23845131 108 17478341833536451577
24771293 8 18129656551500305440
249057 3 18341045320653141015
283562 15 18336829701648293675
314173 85 18413390947153879731
329604 57 18187368752636754028
335352 9 18410572895348272157
34934 24 18265049142229111219
350125 39 18411140233671982593
352729 6 17692807091076033807
463206 1 18265053720269045055
469060 322 18338251387342019081
5104073 3 18267860584887413226
5171179 24 18199170940942152657
57527295 17 17823953742173278479
7164475 11 18336266726452686566
7237137 82 18260831475095596324
7495541 125 17531816877504555738
8863177 126 17752779201716779779
9709674 26 17910106915557987262

> <PUBCHEM_SHAPE_MULTIPOLES>
512.48
11.53
3.74
1.04
5.64
4.67
0.04
-7.21
0.61
-3.46
-0.45
0.28
-0.25
-0.06

> <PUBCHEM_SHAPE_SELFOVERLAP>
1136.478

> <PUBCHEM_SHAPE_VOLUME>
269.5

> <PUBCHEM_COORDINATE_TYPE>
2
5
10

$$$$
