5318216
  -OEChem-02172602413D

 58 60  0     1  0  0  0  0  0999 V2000
    1.0443   -0.3573   -0.4766 O   0  0  0  0  0  0  0  0  0  0  0  0
    0.6225   -3.7057    1.0271 O   0  0  0  0  0  0  0  0  0  0  0  0
    3.1347   -3.0731    1.7854 O   0  0  0  0  0  0  0  0  0  0  0  0
    4.8704    2.4288   -0.8704 O   0  0  0  0  0  0  0  0  0  0  0  0
   -4.9535   -1.8790   -1.3520 O   0  0  0  0  0  0  0  0  0  0  0  0
    0.6292   -1.7301   -0.3963 C   0  0  1  0  0  0  0  0  0  0  0  0
    0.9880   -2.3381    0.9612 C   0  0  2  0  0  0  0  0  0  0  0  0
   -0.8663   -1.7660   -0.6478 C   0  0  0  0  0  0  0  0  0  0  0  0
    2.3648   -0.1577   -0.1734 C   0  0  0  0  0  0  0  0  0  0  0  0
    3.1257   -1.0361    0.6017 C   0  0  0  0  0  0  0  0  0  0  0  0
    2.4836   -2.2390    1.1676 C   0  0  0  0  0  0  0  0  0  0  0  0
    2.9443    1.0157   -0.6591 C   0  0  0  0  0  0  0  0  0  0  0  0
   -1.7356   -1.1298    0.2359 C   0  0  0  0  0  0  0  0  0  0  0  0
    4.4713   -0.7635    0.8629 C   0  0  0  0  0  0  0  0  0  0  0  0
   -1.3658   -2.4362   -1.7624 C   0  0  0  0  0  0  0  0  0  0  0  0
    2.1374    1.9782   -1.4722 C   0  0  0  0  0  0  0  0  0  0  0  0
   -3.1106   -1.1638    0.0039 C   0  0  0  0  0  0  0  0  0  0  0  0
    4.2863    1.2923   -0.3964 C   0  0  0  0  0  0  0  0  0  0  0  0
    5.0492    0.4019    0.3589 C   0  0  0  0  0  0  0  0  0  0  0  0
   -3.6133   -1.8341   -1.1113 C   0  0  0  0  0  0  0  0  0  0  0  0
   -2.7408   -2.4702   -1.9946 C   0  0  0  0  0  0  0  0  0  0  0  0
   -4.0299   -0.4761    0.9584 C   0  0  0  0  0  0  0  0  0  0  0  0
    1.4471    3.0196   -0.6287 C   0  0  0  0  0  0  0  0  0  0  0  0
   -4.2941    0.9618    0.5861 C   0  0  0  0  0  0  0  0  0  0  0  0
    0.1250    3.2423   -0.5027 C   0  0  0  0  0  0  0  0  0  0  0  0
   -4.0060    2.0698    1.2955 C   0  0  0  0  0  0  0  0  0  0  0  0
   -0.4980    4.3030    0.3600 C   0  0  0  0  0  0  0  0  0  0  0  0
   -0.8650    2.4041   -1.2674 C   0  0  0  0  0  0  0  0  0  0  0  0
   -4.2988    3.4781    0.8621 C   0  0  0  0  0  0  0  0  0  0  0  0
   -3.3462    1.9602    2.6446 C   0  0  0  0  0  0  0  0  0  0  0  0
    1.1332   -2.2867   -1.2002 H   0  0  0  0  0  0  0  0  0  0  0  0
    0.5144   -1.8047    1.7938 H   0  0  0  0  0  0  0  0  0  0  0  0
   -1.3483   -0.5945    1.0991 H   0  0  0  0  0  0  0  0  0  0  0  0
    5.0785   -1.4362    1.4620 H   0  0  0  0  0  0  0  0  0  0  0  0
   -0.6989   -2.9365   -2.4592 H   0  0  0  0  0  0  0  0  0  0  0  0
    2.7662    2.4954   -2.2082 H   0  0  0  0  0  0  0  0  0  0  0  0
    1.4608    1.4132   -2.1167 H   0  0  0  0  0  0  0  0  0  0  0  0
    6.0947    0.6144    0.5657 H   0  0  0  0  0  0  0  0  0  0  0  0
    0.7941   -4.0122    1.9339 H   0  0  0  0  0  0  0  0  0  0  0  0
   -3.1186   -2.9962   -2.8672 H   0  0  0  0  0  0  0  0  0  0  0  0
   -4.9960   -0.9968    0.9912 H   0  0  0  0  0  0  0  0  0  0  0  0
   -3.6445   -0.5859    1.9773 H   0  0  0  0  0  0  0  0  0  0  0  0
    2.1142    3.6683   -0.0615 H   0  0  0  0  0  0  0  0  0  0  0  0
   -4.7852    1.1016   -0.3768 H   0  0  0  0  0  0  0  0  0  0  0  0
    4.2078    3.1249   -1.0002 H   0  0  0  0  0  0  0  0  0  0  0  0
   -5.1129   -2.3852   -2.1670 H   0  0  0  0  0  0  0  0  0  0  0  0
    0.2630    4.9409    0.8217 H   0  0  0  0  0  0  0  0  0  0  0  0
   -1.1559    4.9473   -0.2314 H   0  0  0  0  0  0  0  0  0  0  0  0
   -1.0758    3.8417    1.1653 H   0  0  0  0  0  0  0  0  0  0  0  0
   -0.4512    1.7305   -2.0156 H   0  0  0  0  0  0  0  0  0  0  0  0
   -1.4460    1.7988   -0.5656 H   0  0  0  0  0  0  0  0  0  0  0  0
   -1.5639    3.0577   -1.8021 H   0  0  0  0  0  0  0  0  0  0  0  0
   -4.7849    3.5026   -0.1189 H   0  0  0  0  0  0  0  0  0  0  0  0
   -4.9696    3.9631    1.5787 H   0  0  0  0  0  0  0  0  0  0  0  0
   -3.3812    4.0662    0.7918 H   0  0  0  0  0  0  0  0  0  0  0  0
   -2.6686    1.1069    2.7282 H   0  0  0  0  0  0  0  0  0  0  0  0
   -2.7309    2.8454    2.8418 H   0  0  0  0  0  0  0  0  0  0  0  0
   -4.1036    1.8982    3.4323 H   0  0  0  0  0  0  0  0  0  0  0  0
  1  6  1  0  0  0  0
  1  9  1  0  0  0  0
  2  7  1  0  0  0  0
  2 39  1  0  0  0  0
  3 11  2  0  0  0  0
  4 18  1  0  0  0  0
  4 45  1  0  0  0  0
  5 20  1  0  0  0  0
  5 46  1  0  0  0  0
  6  7  1  0  0  0  0
  6  8  1  0  0  0  0
  6 31  1  0  0  0  0
  7 11  1  0  0  0  0
  7 32  1  0  0  0  0
  8 13  2  0  0  0  0
  8 15  1  0  0  0  0
  9 10  2  0  0  0  0
  9 12  1  0  0  0  0
 10 11  1  0  0  0  0
 10 14  1  0  0  0  0
 12 16  1  0  0  0  0
 12 18  2  0  0  0  0
 13 17  1  0  0  0  0
 13 33  1  0  0  0  0
 14 19  2  0  0  0  0
 14 34  1  0  0  0  0
 15 21  2  0  0  0  0
 15 35  1  0  0  0  0
 16 23  1  0  0  0  0
 16 36  1  0  0  0  0
 16 37  1  0  0  0  0
 17 20  2  0  0  0  0
 17 22  1  0  0  0  0
 18 19  1  0  0  0  0
 19 38  1  0  0  0  0
 20 21  1  0  0  0  0
 21 40  1  0  0  0  0
 22 24  1  0  0  0  0
 22 41  1  0  0  0  0
 22 42  1  0  0  0  0
 23 25  2  0  0  0  0
 23 43  1  0  0  0  0
 24 26  2  0  0  0  0
 24 44  1  0  0  0  0
 25 27  1  0  0  0  0
 25 28  1  0  0  0  0
 26 29  1  0  0  0  0
 26 30  1  0  0  0  0
 27 47  1  0  0  0  0
 27 48  1  0  0  0  0
 27 49  1  0  0  0  0
 28 50  1  0  0  0  0
 28 51  1  0  0  0  0
 28 52  1  0  0  0  0
 29 53  1  0  0  0  0
 29 54  1  0  0  0  0
 29 55  1  0  0  0  0
 30 56  1  0  0  0  0
 30 57  1  0  0  0  0
 30 58  1  0  0  0  0
M  END
> <PUBCHEM_COMPOUND_CID>
5318216

> <PUBCHEM_CONFORMER_RMSD>
1

> <PUBCHEM_CONFORMER_DIVERSEORDER>
1
209
42
103
182
15
18
43
143
243
234
40
71
102
45
204
250
163
254
162
130
89
94
11
46
173
51
53
184
220
170
197
171
80
226
105
137
77
70
99
69
181
36
91
225
62
75
121
147
176
174
113
199
117
179
31
180
251
196
37
33
60
14
127
248
224
56
64
188
211
155
85
144
233
206
159
87
140
12
138
242
183
76
150
9
227
152
187
208
24
129
136
237
110
106
44
78
10
175
245
231
84
157
166
219
177
194
221
26
132
168
253
201
86
214
116
239
111
97
161
92
167
131
115
164
232
207
41
66
215
172
50
139
247
61
16
122
165
178
145
186
126
52
158
249
109
108
148
154
202
203
72
32
49
39
236
35
216
54
58
93
98
82
63
235
119
141
21
112
189
20
191
205
90
128
228
65
73
151
30
124
59
230
146
104
213
142
17
48
241
25
23
200
210
192
114
8
13
107
156
6
238
47
74
229
120
149
79
135
169
67
95
133
68
244
27
19
38
160
101
28
34
195
22
240
55
153
246
217
123
218
29
198
83
2
252
7
125
190
193
4
81
5
96
57
118
212
134
3
100
222
88
185
223

> <PUBCHEM_MMFF94_PARTIAL_CHARGES>
40
1 -0.36
10 0.09
11 0.42
12 -0.14
13 -0.15
14 -0.15
15 -0.15
16 0.28
17 -0.14
18 0.08
19 -0.15
2 -0.68
20 0.08
21 -0.15
22 0.28
23 -0.29
24 -0.29
25 -0.28
26 -0.28
27 0.14
28 0.14
29 0.14
3 -0.57
30 0.14
33 0.15
34 0.15
35 0.15
38 0.15
39 0.4
4 -0.53
40 0.15
43 0.15
44 0.15
45 0.45
46 0.45
5 -0.53
6 0.42
7 0.34
8 -0.14
9 0.08

> <PUBCHEM_EFFECTIVE_ROTOR_COUNT>
5.6

> <PUBCHEM_PHARMACOPHORE_FEATURES>
11
1 1 acceptor
1 2 acceptor
1 2 donor
1 3 acceptor
1 4 donor
1 5 donor
3 25 27 28 hydrophobe
3 26 29 30 hydrophobe
6 1 6 7 9 10 11 rings
6 8 13 15 17 20 21 rings
6 9 10 12 14 18 19 rings

> <PUBCHEM_HEAVY_ATOM_COUNT>
30

> <PUBCHEM_ATOM_DEF_STEREO_COUNT>
1

> <PUBCHEM_ATOM_UDEF_STEREO_COUNT>
1

> <PUBCHEM_BOND_DEF_STEREO_COUNT>
0

> <PUBCHEM_BOND_UDEF_STEREO_COUNT>
0

> <PUBCHEM_ISOTOPIC_ATOM_COUNT>
0

> <PUBCHEM_COMPONENT_COUNT>
1

> <PUBCHEM_CACTVS_TAUTO_COUNT>
288

> <PUBCHEM_CONFORMER_ID>
0051264800000001

> <PUBCHEM_MMFF94_ENERGY>
71.3367

> <PUBCHEM_FEATURE_SELFOVERLAP>
55.857

> <PUBCHEM_SHAPE_FINGERPRINT>
10708813 3 18340777013107123897
10871710 139 18412267272050678421
10906281 52 18189627219252584652
11513181 2 17843969135337273621
12107183 9 18051970316478895259
12156800 1 11146334440043609369
12236239 1 18269827756733705967
12422481 6 18192431861964702664
12788726 201 18201714090131231335
13140716 1 18336268937833154288
13965767 371 18055929688141302971
14068700 675 18058154202534399245
14117953 113 17764310540091963053
14464042 87 18341609382005468677
14784336 7 17908695477856950495
14790565 3 18189350115962419772
15297060 5 17417546704509611579
15420108 30 18200317598346211173
15475509 8 18267038184950800126
15484559 13 15803517270307493813
17818456 19 17986955150430360122
20511986 3 18411129234492807273
20715895 44 17617942427211381289
20739085 24 18041006120192139292
21033648 29 16880446415180493431
21033650 10 17986700218657129942
2132832 1 18128237069198448365
22113638 7 18340773658996368757
238918 7 17261021126896195175
3388396 114 17408795970964889157
392239 28 18339065065398253392
437795 70 18056229966886016084
469060 322 17895187835401573861
46939830 39 13676086991967919309
474 4 18189328133971469974
5895379 119 17988094386247586444
6287921 2 17338736859569001857
7064713 232 18201160927685442065

> <PUBCHEM_SHAPE_MULTIPOLES>
588.04
9.77
5.21
1.77
0.43
2.52
0.25
2.06
1.95
-1.8
-0.05
-1.08
-0.4
-4.22

> <PUBCHEM_SHAPE_SELFOVERLAP>
1257.83

> <PUBCHEM_SHAPE_VOLUME>
325.7

> <PUBCHEM_COORDINATE_TYPE>
2
5
10

$$$$
