118701161
  -OEChem-02172602313D

 78 81  0     1  0  0  0  0  0999 V2000
    0.0757   -0.8379   -1.2260 O   0  0  0  0  0  0  0  0  0  0  0  0
   -2.6826    2.6079    1.1951 O   0  0  0  0  0  0  0  0  0  0  0  0
    5.5124   -3.1614    1.6234 O   0  0  0  0  0  0  0  0  0  0  0  0
   -5.3280    1.7274    1.2454 O   0  0  0  0  0  0  0  0  0  0  0  0
    4.6617    2.0481   -2.3246 O   0  0  0  0  0  0  0  0  0  0  0  0
    6.8832   -1.6518   -0.2485 O   0  0  0  0  0  0  0  0  0  0  0  0
   -6.8484   -2.4898    0.5870 O   0  0  0  0  0  0  0  0  0  0  0  0
   -0.4272    0.8408    0.4807 C   0  0  1  0  0  0  0  0  0  0  0  0
    0.3053    0.5401   -0.8535 C   0  0  1  0  0  0  0  0  0  0  0  0
   -1.9045    0.6565    0.0463 C   0  0  2  0  0  0  0  0  0  0  0  0
    2.4152   -0.1378    0.4403 C   0  0  2  0  0  0  0  0  0  0  0  0
    3.9374    0.1952    0.7021 C   0  0  2  0  0  0  0  0  0  0  0  0
    0.0427   -0.1726    1.5379 C   0  0  0  0  0  0  0  0  0  0  0  0
    1.8057    0.6790   -0.7100 C   0  0  0  0  0  0  0  0  0  0  0  0
   -0.4963    1.3784   -1.8606 C   0  0  0  0  0  0  0  0  0  0  0  0
   -1.9552    1.2900   -1.3631 C   0  0  0  0  0  0  0  0  0  0  0  0
    1.5630   -0.0872    1.7464 C   0  0  0  0  0  0  0  0  0  0  0  0
    4.6940    0.3261   -0.6486 C   0  0  1  0  0  0  0  0  0  0  0  0
   -2.9650    1.2176    0.9846 C   0  0  2  0  0  0  0  0  0  0  0  0
   -0.1794    2.2857    0.9945 C   0  0  0  0  0  0  0  0  0  0  0  0
    4.6277   -0.9127    1.5489 C   0  0  0  0  0  0  0  0  0  0  0  0
    2.5375    1.3828   -1.5867 C   0  0  0  0  0  0  0  0  0  0  0  0
    4.8604   -1.0115   -1.3925 C   0  0  0  0  0  0  0  0  0  0  0  0
    4.1050    1.5296    1.4791 C   0  0  0  0  0  0  0  0  0  0  0  0
    4.0163    1.3310   -1.5614 C   0  0  0  0  0  0  0  0  0  0  0  0
    4.7942   -2.2413    0.8042 C   0  0  1  0  0  0  0  0  0  0  0  0
   -4.3868    1.1005    0.3685 C   0  0  1  0  0  0  0  0  0  0  0  0
    5.5415   -2.0631   -0.5175 C   0  0  2  0  0  0  0  0  0  0  0  0
   -2.8825    0.5133    2.3474 C   0  0  0  0  0  0  0  0  0  0  0  0
   -4.8578   -0.3421    0.1019 C   0  0  0  0  0  0  0  0  0  0  0  0
   -6.2928   -0.3870   -0.4538 C   0  0  0  0  0  0  0  0  0  0  0  0
   -6.8513   -1.8092   -0.6696 C   0  0  0  0  0  0  0  0  0  0  0  0
   -8.3026   -1.7223   -1.1541 C   0  0  0  0  0  0  0  0  0  0  0  0
   -6.0185   -2.6224   -1.6632 C   0  0  0  0  0  0  0  0  0  0  0  0
   -2.0868   -0.4204   -0.0739 H   0  0  0  0  0  0  0  0  0  0  0  0
    2.3514   -1.1777    0.0942 H   0  0  0  0  0  0  0  0  0  0  0  0
   -0.2212   -1.1963    1.2453 H   0  0  0  0  0  0  0  0  0  0  0  0
   -0.4082   -0.0100    2.5160 H   0  0  0  0  0  0  0  0  0  0  0  0
   -0.4217    0.9970   -2.8850 H   0  0  0  0  0  0  0  0  0  0  0  0
   -0.1776    2.4269   -1.8675 H   0  0  0  0  0  0  0  0  0  0  0  0
   -2.3916    2.2947   -1.3713 H   0  0  0  0  0  0  0  0  0  0  0  0
   -2.5532    0.6679   -2.0388 H   0  0  0  0  0  0  0  0  0  0  0  0
    1.7647    0.8305    2.3063 H   0  0  0  0  0  0  0  0  0  0  0  0
    1.8598   -0.9121    2.4047 H   0  0  0  0  0  0  0  0  0  0  0  0
    5.6970    0.7279   -0.4441 H   0  0  0  0  0  0  0  0  0  0  0  0
   -0.5378    2.4321    2.0183 H   0  0  0  0  0  0  0  0  0  0  0  0
   -0.5877    3.0592    0.3369 H   0  0  0  0  0  0  0  0  0  0  0  0
    0.8931    2.5065    1.0413 H   0  0  0  0  0  0  0  0  0  0  0  0
    4.0875   -1.0861    2.4871 H   0  0  0  0  0  0  0  0  0  0  0  0
    5.6213   -0.5668    1.8686 H   0  0  0  0  0  0  0  0  0  0  0  0
    2.0920    1.9448   -2.3992 H   0  0  0  0  0  0  0  0  0  0  0  0
    5.4609   -0.8394   -2.2951 H   0  0  0  0  0  0  0  0  0  0  0  0
    3.8896   -1.3897   -1.7345 H   0  0  0  0  0  0  0  0  0  0  0  0
    3.5207    2.3427    1.0374 H   0  0  0  0  0  0  0  0  0  0  0  0
    5.1540    1.8488    1.4908 H   0  0  0  0  0  0  0  0  0  0  0  0
    3.8045    1.4295    2.5273 H   0  0  0  0  0  0  0  0  0  0  0  0
    3.8156   -2.6917    0.6086 H   0  0  0  0  0  0  0  0  0  0  0  0
    0.4857   -0.9835   -2.0962 H   0  0  0  0  0  0  0  0  0  0  0  0
   -4.4432    1.6795   -0.5591 H   0  0  0  0  0  0  0  0  0  0  0  0
    5.6036   -3.0226   -1.0430 H   0  0  0  0  0  0  0  0  0  0  0  0
   -3.7911    0.6739    2.9373 H   0  0  0  0  0  0  0  0  0  0  0  0
   -2.7510   -0.5692    2.2550 H   0  0  0  0  0  0  0  0  0  0  0  0
   -2.0994    0.9406    2.9785 H   0  0  0  0  0  0  0  0  0  0  0  0
   -3.3677    2.9608    1.7884 H   0  0  0  0  0  0  0  0  0  0  0  0
   -4.1820   -0.8237   -0.6098 H   0  0  0  0  0  0  0  0  0  0  0  0
   -4.8292   -0.9193    1.0328 H   0  0  0  0  0  0  0  0  0  0  0  0
    5.0128   -3.2684    2.4508 H   0  0  0  0  0  0  0  0  0  0  0  0
   -5.5607    1.1029    1.9523 H   0  0  0  0  0  0  0  0  0  0  0  0
    7.3371   -1.5568   -1.1032 H   0  0  0  0  0  0  0  0  0  0  0  0
   -6.3278    0.1709   -1.3982 H   0  0  0  0  0  0  0  0  0  0  0  0
   -6.9553    0.1327    0.2500 H   0  0  0  0  0  0  0  0  0  0  0  0
   -8.7387   -2.7213   -1.2686 H   0  0  0  0  0  0  0  0  0  0  0  0
   -8.3763   -1.2007   -2.1140 H   0  0  0  0  0  0  0  0  0  0  0  0
   -8.9272   -1.1966   -0.4228 H   0  0  0  0  0  0  0  0  0  0  0  0
   -5.9169   -2.1038   -2.6219 H   0  0  0  0  0  0  0  0  0  0  0  0
   -6.4802   -3.5992   -1.8490 H   0  0  0  0  0  0  0  0  0  0  0  0
   -5.0196   -2.8358   -1.2687 H   0  0  0  0  0  0  0  0  0  0  0  0
   -7.2083   -3.3822    0.4467 H   0  0  0  0  0  0  0  0  0  0  0  0
  1  9  1  0  0  0  0
  1 58  1  0  0  0  0
  2 19  1  0  0  0  0
  2 64  1  0  0  0  0
  3 26  1  0  0  0  0
  3 67  1  0  0  0  0
  4 27  1  0  0  0  0
  4 68  1  0  0  0  0
  5 25  2  0  0  0  0
  6 28  1  0  0  0  0
  6 69  1  0  0  0  0
  7 32  1  0  0  0  0
  7 78  1  0  0  0  0
  8  9  1  0  0  0  0
  8 10  1  0  0  0  0
  8 13  1  0  0  0  0
  8 20  1  0  0  0  0
  9 14  1  0  0  0  0
  9 15  1  0  0  0  0
 10 16  1  0  0  0  0
 10 19  1  0  0  0  0
 10 35  1  0  0  0  0
 11 12  1  0  0  0  0
 11 14  1  0  0  0  0
 11 17  1  0  0  0  0
 11 36  1  0  0  0  0
 12 18  1  0  0  0  0
 12 21  1  0  0  0  0
 12 24  1  0  0  0  0
 13 17  1  0  0  0  0
 13 37  1  0  0  0  0
 13 38  1  0  0  0  0
 14 22  2  0  0  0  0
 15 16  1  0  0  0  0
 15 39  1  0  0  0  0
 15 40  1  0  0  0  0
 16 41  1  0  0  0  0
 16 42  1  0  0  0  0
 17 43  1  0  0  0  0
 17 44  1  0  0  0  0
 18 23  1  0  0  0  0
 18 25  1  0  0  0  0
 18 45  1  0  0  0  0
 19 27  1  0  0  0  0
 19 29  1  0  0  0  0
 20 46  1  0  0  0  0
 20 47  1  0  0  0  0
 20 48  1  0  0  0  0
 21 26  1  0  0  0  0
 21 49  1  0  0  0  0
 21 50  1  0  0  0  0
 22 25  1  0  0  0  0
 22 51  1  0  0  0  0
 23 28  1  0  0  0  0
 23 52  1  0  0  0  0
 23 53  1  0  0  0  0
 24 54  1  0  0  0  0
 24 55  1  0  0  0  0
 24 56  1  0  0  0  0
 26 28  1  0  0  0  0
 26 57  1  0  0  0  0
 27 30  1  0  0  0  0
 27 59  1  0  0  0  0
 28 60  1  0  0  0  0
 29 61  1  0  0  0  0
 29 62  1  0  0  0  0
 29 63  1  0  0  0  0
 30 31  1  0  0  0  0
 30 65  1  0  0  0  0
 30 66  1  0  0  0  0
 31 32  1  0  0  0  0
 31 70  1  0  0  0  0
 31 71  1  0  0  0  0
 32 33  1  0  0  0  0
 32 34  1  0  0  0  0
 33 72  1  0  0  0  0
 33 73  1  0  0  0  0
 33 74  1  0  0  0  0
 34 75  1  0  0  0  0
 34 76  1  0  0  0  0
 34 77  1  0  0  0  0
M  END
> <PUBCHEM_COMPOUND_CID>
118701161

> <PUBCHEM_CONFORMER_RMSD>
1

> <PUBCHEM_CONFORMER_DIVERSEORDER>
2
20
18
30
27
32
4
23
9
15
11
36
1
22
33
3
31
26
34
14
17
29
8
10
6
19
21
24
12
13
25
37
16
28
5
35
7

> <PUBCHEM_MMFF94_PARTIAL_CHARGES>
25
1 -0.68
11 0.14
14 -0.28
18 0.06
19 0.28
2 -0.68
22 -0.14
25 0.49
26 0.28
27 0.28
28 0.28
3 -0.68
32 0.28
4 -0.68
5 -0.57
51 0.15
58 0.4
6 -0.68
64 0.4
67 0.4
68 0.4
69 0.4
7 -0.68
78 0.4
9 0.42

> <PUBCHEM_EFFECTIVE_ROTOR_COUNT>
6.8

> <PUBCHEM_PHARMACOPHORE_FEATURES>
18
1 1 acceptor
1 1 donor
1 2 acceptor
1 2 donor
1 3 acceptor
1 3 donor
1 4 acceptor
1 4 donor
1 5 acceptor
1 6 acceptor
1 6 donor
1 7 acceptor
1 7 donor
3 32 33 34 hydrophobe
5 8 9 10 15 16 rings
6 11 12 14 18 22 25 rings
6 12 18 21 23 26 28 rings
6 8 9 11 13 14 17 rings

> <PUBCHEM_HEAVY_ATOM_COUNT>
34

> <PUBCHEM_ATOM_DEF_STEREO_COUNT>
7

> <PUBCHEM_ATOM_UDEF_STEREO_COUNT>
3

> <PUBCHEM_BOND_DEF_STEREO_COUNT>
0

> <PUBCHEM_BOND_UDEF_STEREO_COUNT>
0

> <PUBCHEM_ISOTOPIC_ATOM_COUNT>
0

> <PUBCHEM_COMPONENT_COUNT>
1

> <PUBCHEM_CACTVS_TAUTO_COUNT>
5

> <PUBCHEM_CONFORMER_ID>
07133C6900000002

> <PUBCHEM_MMFF94_ENERGY>
130.7433

> <PUBCHEM_FEATURE_SELFOVERLAP>
91.503

> <PUBCHEM_SHAPE_FINGERPRINT>
10 15 16271919432839550947
10554248 39 10881946342448676689
10693767 8 17822283544665119114
10816530 90 11818992989269134871
11456790 92 12535356649648236014
11475781 23 14707201158412804645
11646440 116 14549017671778290034
12011746 2 16009042657069645576
12035758 1 15482665775575219935
12166972 35 18410012147811396013
12236239 1 18409174289696264684
13165053 68 18055630866377382478
13533116 47 18334015007984942904
13726171 33 14762349445380605338
13782708 43 17632856438957842311
14849402 71 11095869498292883291
15183329 4 16950556697559756519
15188451 53 18272646849049631119
15475509 35 18059848450836673394
1577012 14 18409177605775053205
16994733 274 8358244943761153190
17349148 13 18337121063866748208
17913733 40 14261355743464829109
18222031 100 17967250892690486764
19958102 18 17894348891266585595
20028762 73 18408884001684520178
20775438 99 17749389334179581890
21057603 130 18337389328431762218
21424621 283 9079115574952513245
21521239 73 17967531294236519003
21781051 124 16988572311821015734
21792934 111 14836132018406248305
221357 26 17241054193684125852
22149856 69 14907914803320271939
2215653 11 16877666746811481856
22393880 68 16081380669163614504
22956985 138 17913219658704828166
23081809 10 18409456881854978793
23522609 53 18195558989357787545
23559900 14 16515982410098483020
23569914 152 16303690753686268591
23569943 247 17899127222276491563
255183 313 15338829889966623709
2748736 6 10953725725980670979
3504750 166 18049157774319080161
3633792 109 17821445759548217205
3680242 22 14333118651212190906
392239 28 14908170972233350787
397830 11 17489575784022329979
4015057 19 17749680674648769697
4340502 62 13686295777254156452
439807 62 18411139169553814663
465052 167 17632576058744066112
5104073 3 14692023401071601483
57816373 69 18339642231534960670
59682541 52 16950275200559934067
6086070 43 18187640254531462660
6328613 192 8214144053926597295
6700243 42 17558581082374781181
9555976 147 17915745267125351553

> <PUBCHEM_SHAPE_MULTIPOLES>
658.62
18.63
2.73
2.07
21.96
1.18
-0.07
15.81
-2.56
0.5
0.16
-1.16
-0.41
-3.07

> <PUBCHEM_SHAPE_SELFOVERLAP>
1394.172

> <PUBCHEM_SHAPE_VOLUME>
366.2

> <PUBCHEM_COORDINATE_TYPE>
2
5
10

$$$$
