12310804
  -OEChem-02172602263D

 46 47  0     1  0  0  0  0  0999 V2000
   -1.9510   -2.4927    0.3913 O   0  0  0  0  0  0  0  0  0  0  0  0
    0.5130    0.1739   -0.5262 O   0  0  0  0  0  0  0  0  0  0  0  0
    3.9250    1.0347   -0.2590 O   0  0  0  0  0  0  0  0  0  0  0  0
    3.2958    0.2814    2.4611 O   0  0  0  0  0  0  0  0  0  0  0  0
    2.0227    0.8680   -2.1160 O   0  0  0  0  0  0  0  0  0  0  0  0
   -3.6614    0.5790    0.7590 N   0  0  2  0  0  0  0  0  0  0  0  0
   -2.4021   -0.1078    0.3359 C   0  0  1  0  0  0  0  0  0  0  0  0
   -2.8210   -1.5038   -0.1298 C   0  0  2  0  0  0  0  0  0  0  0  0
   -4.7795   -0.2634    0.3081 C   0  0  0  0  0  0  0  0  0  0  0  0
   -4.2234   -1.6666    0.4309 C   0  0  0  0  0  0  0  0  0  0  0  0
   -1.7974    0.7641   -0.7225 C   0  0  0  0  0  0  0  0  0  0  0  0
   -3.6554    1.9030    0.0999 C   0  0  0  0  0  0  0  0  0  0  0  0
   -2.5044    1.8904   -0.8494 C   0  0  0  0  0  0  0  0  0  0  0  0
   -0.5571    0.3934   -1.4506 C   0  0  0  0  0  0  0  0  0  0  0  0
    2.8191    0.1860    0.0893 C   0  0  1  0  0  0  0  0  0  0  0  0
    3.3528   -1.2768    0.0257 C   0  0  0  0  0  0  0  0  0  0  0  0
    2.3063    0.6272    1.4841 C   0  0  2  0  0  0  0  0  0  0  0  0
    1.7644    0.4537   -0.9917 C   0  0  0  0  0  0  0  0  0  0  0  0
    4.0429   -1.6535   -1.2886 C   0  0  0  0  0  0  0  0  0  0  0  0
    2.2653   -2.3170    0.3422 C   0  0  0  0  0  0  0  0  0  0  0  0
    2.0455    2.1267    1.6061 C   0  0  0  0  0  0  0  0  0  0  0  0
   -1.7245   -0.1588    1.1975 H   0  0  0  0  0  0  0  0  0  0  0  0
   -2.8448   -1.5934   -1.2227 H   0  0  0  0  0  0  0  0  0  0  0  0
   -5.0516   -0.0719   -0.7381 H   0  0  0  0  0  0  0  0  0  0  0  0
   -5.6658   -0.1173    0.9325 H   0  0  0  0  0  0  0  0  0  0  0  0
   -4.1960   -2.0001    1.4760 H   0  0  0  0  0  0  0  0  0  0  0  0
   -4.8065   -2.4003   -0.1343 H   0  0  0  0  0  0  0  0  0  0  0  0
   -3.4972    2.6802    0.8556 H   0  0  0  0  0  0  0  0  0  0  0  0
   -4.5937    2.1273   -0.4191 H   0  0  0  0  0  0  0  0  0  0  0  0
   -2.2686    2.7007   -1.5236 H   0  0  0  0  0  0  0  0  0  0  0  0
   -0.3078    1.1830   -2.1698 H   0  0  0  0  0  0  0  0  0  0  0  0
   -0.7160   -0.5332   -2.0123 H   0  0  0  0  0  0  0  0  0  0  0  0
   -1.0584   -2.3013    0.0562 H   0  0  0  0  0  0  0  0  0  0  0  0
    4.1310   -1.3801    0.7942 H   0  0  0  0  0  0  0  0  0  0  0  0
    1.3939    0.0852    1.7552 H   0  0  0  0  0  0  0  0  0  0  0  0
    3.3650   -1.5601   -2.1426 H   0  0  0  0  0  0  0  0  0  0  0  0
    4.3900   -2.6926   -1.2566 H   0  0  0  0  0  0  0  0  0  0  0  0
    4.9242   -1.0331   -1.4766 H   0  0  0  0  0  0  0  0  0  0  0  0
    2.7004   -3.3217    0.3880 H   0  0  0  0  0  0  0  0  0  0  0  0
    1.4860   -2.3327   -0.4261 H   0  0  0  0  0  0  0  0  0  0  0  0
    1.7941   -2.1271    1.3107 H   0  0  0  0  0  0  0  0  0  0  0  0
    1.6758    2.3641    2.6101 H   0  0  0  0  0  0  0  0  0  0  0  0
    1.3033    2.4735    0.8817 H   0  0  0  0  0  0  0  0  0  0  0  0
    2.9659    2.7058    1.4753 H   0  0  0  0  0  0  0  0  0  0  0  0
    4.1425    0.9012   -1.1965 H   0  0  0  0  0  0  0  0  0  0  0  0
    2.9414    0.5200    3.3348 H   0  0  0  0  0  0  0  0  0  0  0  0
  1  8  1  0  0  0  0
  1 33  1  0  0  0  0
  2 14  1  0  0  0  0
  2 18  1  0  0  0  0
  3 15  1  0  0  0  0
  3 45  1  0  0  0  0
  4 17  1  0  0  0  0
  4 46  1  0  0  0  0
  5 18  2  0  0  0  0
  6  7  1  0  0  0  0
  6  9  1  0  0  0  0
  6 12  1  0  0  0  0
  7  8  1  0  0  0  0
  7 11  1  0  0  0  0
  7 22  1  0  0  0  0
  8 10  1  0  0  0  0
  8 23  1  0  0  0  0
  9 10  1  0  0  0  0
  9 24  1  0  0  0  0
  9 25  1  0  0  0  0
 10 26  1  0  0  0  0
 10 27  1  0  0  0  0
 11 13  2  0  0  0  0
 11 14  1  0  0  0  0
 12 13  1  0  0  0  0
 12 28  1  0  0  0  0
 12 29  1  0  0  0  0
 13 30  1  0  0  0  0
 14 31  1  0  0  0  0
 14 32  1  0  0  0  0
 15 16  1  0  0  0  0
 15 17  1  0  0  0  0
 15 18  1  0  0  0  0
 16 19  1  0  0  0  0
 16 20  1  0  0  0  0
 16 34  1  0  0  0  0
 17 21  1  0  0  0  0
 17 35  1  0  0  0  0
 19 36  1  0  0  0  0
 19 37  1  0  0  0  0
 19 38  1  0  0  0  0
 20 39  1  0  0  0  0
 20 40  1  0  0  0  0
 20 41  1  0  0  0  0
 21 42  1  0  0  0  0
 21 43  1  0  0  0  0
 21 44  1  0  0  0  0
M  END
> <PUBCHEM_COMPOUND_CID>
12310804

> <PUBCHEM_CONFORMER_RMSD>
0.8

> <PUBCHEM_CONFORMER_DIVERSEORDER>
1
107
120
301
189
297
312
230
170
104
231
57
348
250
156
154
333
51
318
11
350
155
261
314
187
284
79
225
273
36
276
130
208
28
315
349
151
317
175
267
336
61
235
323
282
344
201
200
45
106
351
240
347
258
114
165
176
140
300
287
275
308
310
185
139
43
68
188
247
222
295
12
326
264
265
370
152
345
286
190
341
224
46
361
174
99
245
278
226
113
372
195
216
251
363
146
117
271
128
373
358
244
171
135
371
209
66
330
268
96
180
302
37
237
78
198
25
337
196
304
91
145
109
132
220
10
116
243
354
181
306
159
290
137
47
8
31
118
149
88
252
322
234
211
74
129
160
325
218
204
263
215
352
369
303
167
100
206
30
73
89
334
110
289
192
14
262
294
105
279
147
343
320
16
172
40
309
92
162
241
141
197
126
21
193
316
313
23
33
183
366
292
163
199
143
148
266
339
19
293
6
319
17
332
50
124
324
90
136
13
248
24
269
76
101
217
367
321
48
41
359
257
150
77
35
112
97
233
3
38
39
52
328
288
93
228
58
362
335
357
353
327
65
127
212
42
355
338
214
18
69
123
94
202
59
2
356
186
340
281
102
70
164
122
34
53
29
255
296
236
85
232
54
81
67
71
26
205
374
9
311
115
111
291
144
283
260
7
95
5
87
191
134
168
331
157
285
4
213
178
138
20
253
179
27
239
80
207
142
194
346
98
368
60
280
44
49
173
63
131
82
182
103
307
277
64
238
221
15
161
83
259
121
329
62
299
32
360
256
153
177
56
305
227
246
72
210
274
364
229
342
133
365
84
169
166
270
254
219
119
203
55
22
298
108
75
249
158
86
223
272
125
184
242

> <PUBCHEM_MMFF94_PARTIAL_CHARGES>
20
1 -0.68
11 -0.28
12 0.41
13 -0.29
14 0.42
15 0.34
17 0.28
18 0.66
2 -0.43
3 -0.68
30 0.15
33 0.4
4 -0.68
45 0.4
46 0.4
5 -0.57
6 -0.81
7 0.41
8 0.28
9 0.27

> <PUBCHEM_EFFECTIVE_ROTOR_COUNT>
6.8

> <PUBCHEM_PHARMACOPHORE_FEATURES>
11
1 1 acceptor
1 1 donor
1 3 acceptor
1 3 donor
1 4 acceptor
1 4 donor
1 5 acceptor
1 6 cation
3 16 19 20 hydrophobe
5 6 7 11 12 13 rings
5 6 7 8 9 10 rings

> <PUBCHEM_HEAVY_ATOM_COUNT>
21

> <PUBCHEM_ATOM_DEF_STEREO_COUNT>
4

> <PUBCHEM_ATOM_UDEF_STEREO_COUNT>
0

> <PUBCHEM_BOND_DEF_STEREO_COUNT>
0

> <PUBCHEM_BOND_UDEF_STEREO_COUNT>
0

> <PUBCHEM_ISOTOPIC_ATOM_COUNT>
0

> <PUBCHEM_COMPONENT_COUNT>
1

> <PUBCHEM_CACTVS_TAUTO_COUNT>
1

> <PUBCHEM_CONFORMER_ID>
00BBD91400000001

> <PUBCHEM_MMFF94_ENERGY>
41.2786

> <PUBCHEM_FEATURE_SELFOVERLAP>
56.197

> <PUBCHEM_SHAPE_FINGERPRINT>
10366900 7 18270110352579985025
10616163 171 18261685864571491535
1100329 8 16325983166880487601
11552529 35 17702665617526916455
11578080 2 17242428728974090989
12500047 106 18410005503454362413
12507560 40 18272365360855631196
12553582 1 16370729201248511989
12596599 1 17240772804168950595
12633257 1 17845952770325702019
12670545 47 18059296573271478613
128620 24 12396593922160594462
13134695 92 17060332982074974264
13224815 77 17968090932479822699
13533116 47 18343579621318091887
13583140 156 18201988928728874453
14081887 123 18269829977479074563
14178342 30 18114728344368861250
14289901 80 18410577309662139465
14866123 147 16328239377615809566
15238133 3 17701557129079790904
15295992 7 17774718663078264609
15653759 3 18273213105727093089
16752209 62 17894904118994766085
17804303 29 18339086990614851471
1813 80 16805330985153867903
18186145 218 16200429182549000468
20442098 301 18113053822382359711
20681677 76 18130492111544078477
21065199 12 18343862229691057681
21731516 1 16515675607356535324
21756936 100 17338417314166236560
22169311 14 18201439147044825765
2255824 54 16298681567577263084
22646028 28 17821729463881758755
235170 7 11458433405315378169
23559900 14 18409732867589107365
23598288 3 15287871751692122516
23598291 2 17168443583387877485
31174 14 18131066086293407401
339767 52 17822846602007909759
474 4 14836406938651130189
9709674 26 18334304192338564911

> <PUBCHEM_SHAPE_MULTIPOLES>
397.84
9.16
2.35
1.6
3.09
0.61
0.18
1.6
1.18
0.26
0.36
-1.63
-0.57
1.19

> <PUBCHEM_SHAPE_SELFOVERLAP>
816.252

> <PUBCHEM_SHAPE_VOLUME>
232.1

> <PUBCHEM_COORDINATE_TYPE>
2
5
10

$$$$
