76334042
  -OEChem-02172602273D

 60 61  0     1  0  0  0  0  0999 V2000
   -2.7009    0.1891   -0.0067 O   0  0  0  0  0  0  0  0  0  0  0  0
   -0.9751   -3.7502   -1.0093 O   0  5  0  0  0  0  0  0  0  0  0  0
    1.5984   -0.0813    0.7151 O   0  0  0  0  0  0  0  0  0  0  0  0
    4.6110    1.8254    0.6319 O   0  0  0  0  0  0  0  0  0  0  0  0
   -2.9558    2.0147   -1.3862 O   0  0  0  0  0  0  0  0  0  0  0  0
    2.5276    0.1920   -1.9084 O   0  0  0  0  0  0  0  0  0  0  0  0
    2.2644    1.8652    1.7359 O   0  0  0  0  0  0  0  0  0  0  0  0
    4.3564   -0.8213    1.8733 O   0  0  0  0  0  0  0  0  0  0  0  0
   -1.6654   -2.7926   -0.3213 N   0  3  1  0  0  0  0  0  0  0  0  0
   -0.9186   -1.4496   -0.3456 C   0  0  1  0  0  0  0  0  0  0  0  0
   -1.8868   -0.4486   -0.9853 C   0  0  1  0  0  0  0  0  0  0  0  0
   -2.9993   -2.5366   -0.9775 C   0  0  0  0  0  0  0  0  0  0  0  0
   -2.7559   -1.3302   -1.8684 C   0  0  0  0  0  0  0  0  0  0  0  0
   -1.7664   -3.1542    1.1525 C   0  0  0  0  0  0  0  0  0  0  0  0
   -0.4933   -1.1885    1.0674 C   0  0  0  0  0  0  0  0  0  0  0  0
   -0.9670   -2.1311    1.8896 C   0  0  0  0  0  0  0  0  0  0  0  0
    0.3591   -0.0271    1.4287 C   0  0  0  0  0  0  0  0  0  0  0  0
   -3.1736    1.4258   -0.3370 C   0  0  0  0  0  0  0  0  0  0  0  0
    3.7568    0.7716    0.1373 C   0  0  1  0  0  0  0  0  0  0  0  0
    2.4710    0.9361    0.9630 C   0  0  0  0  0  0  0  0  0  0  0  0
    3.5215    1.0736   -1.3802 C   0  0  0  0  0  0  0  0  0  0  0  0
    4.4916   -0.5580    0.4695 C   0  0  2  0  0  0  0  0  0  0  0  0
   -4.0007    1.9653    0.7848 C   0  0  0  0  0  0  0  0  0  0  0  0
    4.8007    0.8707   -2.2138 C   0  0  0  0  0  0  0  0  0  0  0  0
    3.0245    2.5118   -1.6066 C   0  0  0  0  0  0  0  0  0  0  0  0
    4.0808   -1.8152   -0.2867 C   0  0  0  0  0  0  0  0  0  0  0  0
   -3.3612    2.1134    2.1335 C   0  0  0  0  0  0  0  0  0  0  0  0
   -5.2822    2.2480    0.4864 C   0  0  0  0  0  0  0  0  0  0  0  0
   -5.9616    2.0818   -0.8359 C   0  0  0  0  0  0  0  0  0  0  0  0
   -0.0511   -1.6163   -0.9972 H   0  0  0  0  0  0  0  0  0  0  0  0
   -1.3210    0.2884   -1.5674 H   0  0  0  0  0  0  0  0  0  0  0  0
   -3.7313   -2.3042   -0.1979 H   0  0  0  0  0  0  0  0  0  0  0  0
   -3.3010   -3.4353   -1.5228 H   0  0  0  0  0  0  0  0  0  0  0  0
   -2.2083   -1.6288   -2.7696 H   0  0  0  0  0  0  0  0  0  0  0  0
   -3.6979   -0.8587   -2.1623 H   0  0  0  0  0  0  0  0  0  0  0  0
   -1.3494   -4.1586    1.2746 H   0  0  0  0  0  0  0  0  0  0  0  0
   -2.8153   -3.1449    1.4580 H   0  0  0  0  0  0  0  0  0  0  0  0
   -0.7936   -2.1640    2.9556 H   0  0  0  0  0  0  0  0  0  0  0  0
    0.5681   -0.0264    2.5054 H   0  0  0  0  0  0  0  0  0  0  0  0
   -0.1627    0.9034    1.1766 H   0  0  0  0  0  0  0  0  0  0  0  0
    5.5656   -0.4061    0.3014 H   0  0  0  0  0  0  0  0  0  0  0  0
    5.1639   -0.1573   -2.2150 H   0  0  0  0  0  0  0  0  0  0  0  0
    5.6119    1.5173   -1.8628 H   0  0  0  0  0  0  0  0  0  0  0  0
    4.6126    1.1137   -3.2669 H   0  0  0  0  0  0  0  0  0  0  0  0
    2.1060    2.7112   -1.0445 H   0  0  0  0  0  0  0  0  0  0  0  0
    2.7639    2.6661   -2.6611 H   0  0  0  0  0  0  0  0  0  0  0  0
    3.7729    3.2650   -1.3426 H   0  0  0  0  0  0  0  0  0  0  0  0
    3.0390   -2.0774   -0.0753 H   0  0  0  0  0  0  0  0  0  0  0  0
    4.2037   -1.7507   -1.3668 H   0  0  0  0  0  0  0  0  0  0  0  0
    4.6768   -2.6687    0.0578 H   0  0  0  0  0  0  0  0  0  0  0  0
    4.1136    2.6598    0.6435 H   0  0  0  0  0  0  0  0  0  0  0  0
    2.4123    0.3917   -2.8530 H   0  0  0  0  0  0  0  0  0  0  0  0
   -2.4742    2.7511    2.0635 H   0  0  0  0  0  0  0  0  0  0  0  0
   -4.0462    2.5690    2.8559 H   0  0  0  0  0  0  0  0  0  0  0  0
   -3.0579    1.1378    2.5263 H   0  0  0  0  0  0  0  0  0  0  0  0
    4.8994   -1.6008    2.0811 H   0  0  0  0  0  0  0  0  0  0  0  0
   -5.9133    2.6445    1.2797 H   0  0  0  0  0  0  0  0  0  0  0  0
   -6.1045    3.0585   -1.3079 H   0  0  0  0  0  0  0  0  0  0  0  0
   -6.9499    1.6367   -0.6776 H   0  0  0  0  0  0  0  0  0  0  0  0
   -5.4319    1.4274   -1.5319 H   0  0  0  0  0  0  0  0  0  0  0  0
  1 11  1  0  0  0  0
  1 18  1  0  0  0  0
  2  9  1  0  0  0  0
  3 17  1  0  0  0  0
  3 20  1  0  0  0  0
  4 19  1  0  0  0  0
  4 51  1  0  0  0  0
  5 18  2  0  0  0  0
  6 21  1  0  0  0  0
  6 52  1  0  0  0  0
  7 20  2  0  0  0  0
  8 22  1  0  0  0  0
  8 56  1  0  0  0  0
  9 10  1  0  0  0  0
  9 12  1  0  0  0  0
  9 14  1  0  0  0  0
 10 11  1  0  0  0  0
 10 15  1  0  0  0  0
 10 30  1  0  0  0  0
 11 13  1  0  0  0  0
 11 31  1  0  0  0  0
 12 13  1  0  0  0  0
 12 32  1  0  0  0  0
 12 33  1  0  0  0  0
 13 34  1  0  0  0  0
 13 35  1  0  0  0  0
 14 16  1  0  0  0  0
 14 36  1  0  0  0  0
 14 37  1  0  0  0  0
 15 16  2  0  0  0  0
 15 17  1  0  0  0  0
 16 38  1  0  0  0  0
 17 39  1  0  0  0  0
 17 40  1  0  0  0  0
 18 23  1  0  0  0  0
 19 20  1  0  0  0  0
 19 21  1  0  0  0  0
 19 22  1  0  0  0  0
 21 24  1  0  0  0  0
 21 25  1  0  0  0  0
 22 26  1  0  0  0  0
 22 41  1  0  0  0  0
 23 27  1  0  0  0  0
 23 28  2  0  0  0  0
 24 42  1  0  0  0  0
 24 43  1  0  0  0  0
 24 44  1  0  0  0  0
 25 45  1  0  0  0  0
 25 46  1  0  0  0  0
 25 47  1  0  0  0  0
 26 48  1  0  0  0  0
 26 49  1  0  0  0  0
 26 50  1  0  0  0  0
 27 53  1  0  0  0  0
 27 54  1  0  0  0  0
 27 55  1  0  0  0  0
 28 29  1  0  0  0  0
 28 57  1  0  0  0  0
 29 58  1  0  0  0  0
 29 59  1  0  0  0  0
 29 60  1  0  0  0  0
M  CHG  2   2  -1   9   1
M  END
> <PUBCHEM_COMPOUND_CID>
76334042

> <PUBCHEM_CONFORMER_RMSD>
1.2

> <PUBCHEM_CONFORMER_DIVERSEORDER>
1
84
30
27
140
129
75
91
82
40
17
20
144
52
72
122
118
61
99
74
131
83
103
42
136
139
19
77
96
26
14
97
111
35
134
50
64
67
8
146
124
13
135
80
121
102
85
37
104
9
93
81
132
137
36
130
141
107
105
70
41
89
78
38
66
94
110
33
34
51
115
18
128
24
142
127
112
22
56
65
133
126
117
3
55
45
46
59
106
7
28
92
88
138
39
109
100
71
145
60
119
113
69
10
90
125
87
57
49
101
120
25
47
2
15
143
63
53
31
11
5
62
116
114
68
44
73
148
32
86
58
54
43
48
6
108
29
76
12
16
123
98
4
95
23
79
21
147

> <PUBCHEM_MMFF94_PARTIAL_CHARGES>
30
1 -0.43
10 0.39
11 0.28
12 0.26
14 0.39
15 -0.28
16 -0.29
17 0.42
18 0.71
19 0.34
2 -0.75
20 0.66
21 0.28
22 0.28
23 -0.12
27 0.14
28 -0.29
29 0.14
3 -0.43
38 0.15
4 -0.68
5 -0.57
51 0.4
52 0.4
56 0.4
57 0.15
6 -0.68
7 -0.57
8 -0.68
9 -0.02

> <PUBCHEM_EFFECTIVE_ROTOR_COUNT>
9.8

> <PUBCHEM_PHARMACOPHORE_FEATURES>
14
1 2 anion
1 27 hydrophobe
1 29 hydrophobe
1 4 acceptor
1 4 donor
1 5 acceptor
1 6 acceptor
1 6 donor
1 7 acceptor
1 8 acceptor
1 8 donor
3 21 24 25 hydrophobe
5 9 10 11 12 13 rings
5 9 10 14 15 16 rings

> <PUBCHEM_HEAVY_ATOM_COUNT>
29

> <PUBCHEM_ATOM_DEF_STEREO_COUNT>
4

> <PUBCHEM_ATOM_UDEF_STEREO_COUNT>
1

> <PUBCHEM_BOND_DEF_STEREO_COUNT>
1

> <PUBCHEM_BOND_UDEF_STEREO_COUNT>
0

> <PUBCHEM_ISOTOPIC_ATOM_COUNT>
0

> <PUBCHEM_COMPONENT_COUNT>
1

> <PUBCHEM_CACTVS_TAUTO_COUNT>
1

> <PUBCHEM_CONFORMER_ID>
048CC3DA00000001

> <PUBCHEM_MMFF94_ENERGY>
74.1222

> <PUBCHEM_FEATURE_SELFOVERLAP>
71.371

> <PUBCHEM_SHAPE_FINGERPRINT>
12596599 1 17168698764865055566
12633257 1 18040708152620445190
12788726 201 18122067760879001775
13224815 77 12252172022413245290
13544653 18 9294990384967143571
13828863 39 16298971842673204229
14251757 17 16486972856524471685
14468879 13 17775291572955019397
14955137 171 17833822777496498795
15664445 248 16758859327110460815
17809404 112 16630521856421043374
17980427 23 18042109025314155664
21756936 100 17531539775131580548
21864079 5 16732969934464985668
22393880 68 18130231562074886396
22907989 373 18124608723396730255
23419403 2 17475570085155543795
23557571 272 17986668371037163432
23559900 14 17703799094056321068
2637199 183 17917429757936798241
340366 18 18334299721609568598
3729539 64 17841456742219525999
3797600 57 7925624514927878302
4058900 60 18121506752773239513
469060 322 12830341488330847643
5895379 119 18187358883361505908
6004065 56 10665817524016214921
7399639 24 17267485623675185168

> <PUBCHEM_SHAPE_MULTIPOLES>
544.87
11.2
3.75
2.11
0.99
2.16
-0.01
-8.39
1.61
-3.27
0.21
0.6
-0.25
-1.39

> <PUBCHEM_SHAPE_SELFOVERLAP>
1121.395

> <PUBCHEM_SHAPE_VOLUME>
314.2

> <PUBCHEM_COORDINATE_TYPE>
2
5
10

$$$$
