6748
  -OEChem-02172602273D

 21 22  0     0  0  0  0  0  0999 V2000
    1.0309    2.6985   -0.0010 O   0  0  0  0  0  0  0  0  0  0  0  0
    1.0477   -1.3768   -0.0002 N   0  0  0  0  0  0  0  0  0  0  0  0
   -0.2043   -0.7176    0.0000 C   0  0  0  0  0  0  0  0  0  0  0  0
   -0.2479    0.6967    0.0003 C   0  0  0  0  0  0  0  0  0  0  0  0
    1.0193    1.4742    0.0004 C   0  0  0  0  0  0  0  0  0  0  0  0
   -1.4351   -1.3974   -0.0001 C   0  0  0  0  0  0  0  0  0  0  0  0
    2.2066   -0.6253    0.0000 C   0  0  0  0  0  0  0  0  0  0  0  0
   -1.4640    1.3923    0.0000 C   0  0  0  0  0  0  0  0  0  0  0  0
    2.2843    0.7078    0.0007 C   0  0  0  0  0  0  0  0  0  0  0  0
    1.0757   -2.8369   -0.0003 C   0  0  0  0  0  0  0  0  0  0  0  0
   -2.6496   -0.7032    0.0001 C   0  0  0  0  0  0  0  0  0  0  0  0
   -2.6637    0.6877    0.0000 C   0  0  0  0  0  0  0  0  0  0  0  0
   -1.4822   -2.4832   -0.0002 H   0  0  0  0  0  0  0  0  0  0  0  0
    3.1155   -1.2178   -0.0002 H   0  0  0  0  0  0  0  0  0  0  0  0
   -1.4940    2.4784    0.0001 H   0  0  0  0  0  0  0  0  0  0  0  0
    3.2279    1.2380    0.0008 H   0  0  0  0  0  0  0  0  0  0  0  0
    0.5871   -3.2384    0.8946 H   0  0  0  0  0  0  0  0  0  0  0  0
    2.1024   -3.2214   -0.0005 H   0  0  0  0  0  0  0  0  0  0  0  0
    0.5869   -3.2382   -0.8952 H   0  0  0  0  0  0  0  0  0  0  0  0
   -3.5859   -1.2543    0.0001 H   0  0  0  0  0  0  0  0  0  0  0  0
   -3.6090    1.2223    0.0000 H   0  0  0  0  0  0  0  0  0  0  0  0
  1  5  2  0  0  0  0
  2  3  1  0  0  0  0
  2  7  1  0  0  0  0
  2 10  1  0  0  0  0
  3  4  1  0  0  0  0
  3  6  2  0  0  0  0
  4  5  1  0  0  0  0
  4  8  2  0  0  0  0
  5  9  1  0  0  0  0
  6 11  1  0  0  0  0
  6 13  1  0  0  0  0
  7  9  2  0  0  0  0
  7 14  1  0  0  0  0
  8 12  1  0  0  0  0
  8 15  1  0  0  0  0
  9 16  1  0  0  0  0
 10 17  1  0  0  0  0
 10 18  1  0  0  0  0
 10 19  1  0  0  0  0
 11 12  2  0  0  0  0
 11 20  1  0  0  0  0
 12 21  1  0  0  0  0
M  END
> <PUBCHEM_COMPOUND_CID>
6748

> <PUBCHEM_CONFORMER_RMSD>
0.4

> <PUBCHEM_CONFORMER_DIVERSEORDER>
1

> <PUBCHEM_MMFF94_PARTIAL_CHARGES>
18
1 -0.57
10 0.37
11 -0.15
12 -0.15
13 0.15
14 0.15
15 0.15
16 0.15
2 -0.57
20 0.15
21 0.15
3 0.1
4 0.09
5 0.47
6 -0.15
7 -0.05
8 -0.15
9 -0.14

> <PUBCHEM_EFFECTIVE_ROTOR_COUNT>
0

> <PUBCHEM_PHARMACOPHORE_FEATURES>
4
1 1 acceptor
1 2 cation
6 2 3 4 5 7 9 rings
6 3 4 6 8 11 12 rings

> <PUBCHEM_HEAVY_ATOM_COUNT>
12

> <PUBCHEM_ATOM_DEF_STEREO_COUNT>
0

> <PUBCHEM_ATOM_UDEF_STEREO_COUNT>
0

> <PUBCHEM_BOND_DEF_STEREO_COUNT>
0

> <PUBCHEM_BOND_UDEF_STEREO_COUNT>
0

> <PUBCHEM_ISOTOPIC_ATOM_COUNT>
0

> <PUBCHEM_COMPONENT_COUNT>
1

> <PUBCHEM_CACTVS_TAUTO_COUNT>
1

> <PUBCHEM_CONFORMER_ID>
00001A5C00000001

> <PUBCHEM_MMFF94_ENERGY>
38.2277

> <PUBCHEM_FEATURE_SELFOVERLAP>
20.321

> <PUBCHEM_SHAPE_FINGERPRINT>
10967382 1 18410573959508416807
11471102 20 18410289216509811549
12423570 1 17677339294487616692
12524768 44 18126286333327820831
16945 1 18410575084895174501
17990270 104 18410011005254824987
193761 8 17762055437315914916
20201158 50 18408881806902730759
21040471 1 17906452482409730116
2334 1 17978228592938866183
23463225 33 18335134255214115610
23552423 10 18409730685782371143
23559900 14 17981626054770385652
241688 4 17906172849820833634
2748010 2 18049162460281224831
2897 32 18410293652667761269
5084963 1 18059018422219523545
528886 8 18411132580008040969
53812653 166 18342172254501980448
63268167 104 18338237046672810561
66348 1 18195809570074509735
7364860 26 18270960146367254810

> <PUBCHEM_SHAPE_MULTIPOLES>
236.1
3.42
2.66
0.6
1.12
0.28
0
0.1
0
-1.08
0
0.02
0.01
0

> <PUBCHEM_SHAPE_SELFOVERLAP>
511.196

> <PUBCHEM_SHAPE_VOLUME>
129.2

> <PUBCHEM_COORDINATE_TYPE>
2
5
10

$$$$
