10379640
  -OEChem-02172602253D

 41 43  0     0  0  0  0  0  0999 V2000
   -3.0466    2.5883    0.3015 O   0  0  0  0  0  0  0  0  0  0  0  0
    1.6617    4.0476   -1.0257 O   0  0  0  0  0  0  0  0  0  0  0  0
   -2.7264   -0.4008    0.1266 N   0  0  0  0  0  0  0  0  0  0  0  0
   -0.5519   -0.0929   -0.2599 C   0  0  0  0  0  0  0  0  0  0  0  0
   -1.7573    0.5645   -0.0129 C   0  0  0  0  0  0  0  0  0  0  0  0
    0.6132    0.6811   -0.4430 C   0  0  0  0  0  0  0  0  0  0  0  0
   -0.8250   -1.4978   -0.2655 C   0  0  0  0  0  0  0  0  0  0  0  0
   -2.1893   -1.6577   -0.0218 C   0  0  0  0  0  0  0  0  0  0  0  0
    1.9468    0.0526   -0.7132 C   0  0  0  0  0  0  0  0  0  0  0  0
    0.5283    2.0761   -0.3722 C   0  0  0  0  0  0  0  0  0  0  0  0
   -1.8581    1.9585    0.0607 C   0  0  0  0  0  0  0  0  0  0  0  0
   -0.6902    2.7034   -0.1241 C   0  0  0  0  0  0  0  0  0  0  0  0
   -0.0342   -2.6504   -0.4558 C   0  0  0  0  0  0  0  0  0  0  0  0
   -2.8049   -2.9132    0.0412 C   0  0  0  0  0  0  0  0  0  0  0  0
    2.7149   -0.2460    0.5477 C   0  0  0  0  0  0  0  0  0  0  0  0
   -0.6354   -3.9126   -0.3957 C   0  0  0  0  0  0  0  0  0  0  0  0
   -2.0007   -4.0398   -0.1509 C   0  0  0  0  0  0  0  0  0  0  0  0
    1.7101    2.9102   -0.5543 C   0  0  0  0  0  0  0  0  0  0  0  0
    3.9453   -0.7816    0.6622 C   0  0  0  0  0  0  0  0  0  0  0  0
    4.6560   -1.0540    1.9575 C   0  0  0  0  0  0  0  0  0  0  0  0
    4.7236   -1.1714   -0.5664 C   0  0  0  0  0  0  0  0  0  0  0  0
   -3.3797    2.8357    1.6641 C   0  0  0  0  0  0  0  0  0  0  0  0
   -3.7015   -0.2117    0.3133 H   0  0  0  0  0  0  0  0  0  0  0  0
    1.8136   -0.8571   -1.3022 H   0  0  0  0  0  0  0  0  0  0  0  0
    2.5458    0.6873   -1.3773 H   0  0  0  0  0  0  0  0  0  0  0  0
   -0.7501    3.7888   -0.0666 H   0  0  0  0  0  0  0  0  0  0  0  0
    1.0341   -2.6079   -0.6299 H   0  0  0  0  0  0  0  0  0  0  0  0
   -3.8683   -3.0129    0.2323 H   0  0  0  0  0  0  0  0  0  0  0  0
    2.2107    0.0038    1.4816 H   0  0  0  0  0  0  0  0  0  0  0  0
   -0.0286   -4.8030   -0.5374 H   0  0  0  0  0  0  0  0  0  0  0  0
   -2.4482   -5.0294   -0.1069 H   0  0  0  0  0  0  0  0  0  0  0  0
    2.6854    2.4990   -0.2517 H   0  0  0  0  0  0  0  0  0  0  0  0
    4.0502   -0.7570    2.8199 H   0  0  0  0  0  0  0  0  0  0  0  0
    4.8764   -2.1217    2.0553 H   0  0  0  0  0  0  0  0  0  0  0  0
    5.5967   -0.4960    2.0014 H   0  0  0  0  0  0  0  0  0  0  0  0
    4.1957   -0.9883   -1.5057 H   0  0  0  0  0  0  0  0  0  0  0  0
    5.6636   -0.6106   -0.6064 H   0  0  0  0  0  0  0  0  0  0  0  0
    4.9632   -2.2397   -0.5332 H   0  0  0  0  0  0  0  0  0  0  0  0
   -2.6353    3.4902    2.1285 H   0  0  0  0  0  0  0  0  0  0  0  0
   -3.4522    1.8956    2.2201 H   0  0  0  0  0  0  0  0  0  0  0  0
   -4.3519    3.3353    1.6948 H   0  0  0  0  0  0  0  0  0  0  0  0
  1 11  1  0  0  0  0
  1 22  1  0  0  0  0
  2 18  2  0  0  0  0
  3  5  1  0  0  0  0
  3  8  1  0  0  0  0
  3 23  1  0  0  0  0
  4  5  1  0  0  0  0
  4  6  2  0  0  0  0
  4  7  1  0  0  0  0
  5 11  2  0  0  0  0
  6  9  1  0  0  0  0
  6 10  1  0  0  0  0
  7  8  1  0  0  0  0
  7 13  2  0  0  0  0
  8 14  2  0  0  0  0
  9 15  1  0  0  0  0
  9 24  1  0  0  0  0
  9 25  1  0  0  0  0
 10 12  2  0  0  0  0
 10 18  1  0  0  0  0
 11 12  1  0  0  0  0
 12 26  1  0  0  0  0
 13 16  1  0  0  0  0
 13 27  1  0  0  0  0
 14 17  1  0  0  0  0
 14 28  1  0  0  0  0
 15 19  2  0  0  0  0
 15 29  1  0  0  0  0
 16 17  2  0  0  0  0
 16 30  1  0  0  0  0
 17 31  1  0  0  0  0
 18 32  1  0  0  0  0
 19 20  1  0  0  0  0
 19 21  1  0  0  0  0
 20 33  1  0  0  0  0
 20 34  1  0  0  0  0
 20 35  1  0  0  0  0
 21 36  1  0  0  0  0
 21 37  1  0  0  0  0
 21 38  1  0  0  0  0
 22 39  1  0  0  0  0
 22 40  1  0  0  0  0
 22 41  1  0  0  0  0
M  END
> <PUBCHEM_COMPOUND_CID>
10379640

> <PUBCHEM_CONFORMER_RMSD>
0.6

> <PUBCHEM_CONFORMER_DIVERSEORDER>
2
14
15
12
11
9
16
1
13
3
6
5
4
8
10
7

> <PUBCHEM_MMFF94_PARTIAL_CHARGES>
28
1 -0.36
10 0.09
11 0.08
12 -0.15
13 -0.15
14 -0.15
15 -0.29
16 -0.15
17 -0.15
18 0.42
19 -0.28
2 -0.57
20 0.14
21 0.14
22 0.28
23 0.27
26 0.15
27 0.15
28 0.15
29 0.15
3 0.03
30 0.15
31 0.15
32 0.06
5 -0.15
6 -0.14
8 -0.15
9 0.28

> <PUBCHEM_EFFECTIVE_ROTOR_COUNT>
4

> <PUBCHEM_PHARMACOPHORE_FEATURES>
8
1 1 acceptor
1 2 acceptor
1 3 cation
1 3 donor
3 19 20 21 hydrophobe
5 3 4 5 7 8 rings
6 4 5 6 10 11 12 rings
6 7 8 13 14 16 17 rings

> <PUBCHEM_HEAVY_ATOM_COUNT>
22

> <PUBCHEM_ATOM_DEF_STEREO_COUNT>
0

> <PUBCHEM_ATOM_UDEF_STEREO_COUNT>
0

> <PUBCHEM_BOND_DEF_STEREO_COUNT>
0

> <PUBCHEM_BOND_UDEF_STEREO_COUNT>
0

> <PUBCHEM_ISOTOPIC_ATOM_COUNT>
0

> <PUBCHEM_COMPONENT_COUNT>
1

> <PUBCHEM_CACTVS_TAUTO_COUNT>
4

> <PUBCHEM_CONFORMER_ID>
009E617800000002

> <PUBCHEM_MMFF94_ENERGY>
63.2366

> <PUBCHEM_FEATURE_SELFOVERLAP>
40.774

> <PUBCHEM_SHAPE_FINGERPRINT>
10319926 262 18198032869720129018
10411042 1 18195247955978230878
10493431 412 18198064672866096297
10967382 1 17834121844616191455
1100329 8 18410291454177392067
12553582 1 18266179616039435814
12788726 201 18267878348328933555
13140716 1 18267311017925712395
138480 1 16465865235126485654
13911987 19 18118120273364287420
14178342 30 18198630938808485641
14790565 3 18051152306077882692
14863182 85 17904224541345226189
15042514 8 18336542699449872354
15420108 30 17840303316505228721
16110190 28 17541914526951182330
16728300 4 17244970550379594939
16945 1 18339936969132882439
19591789 44 17835248847971348759
20028762 73 18272936003839349967
20600515 1 18270966748122625940
20905425 154 17981617270670006884
21421861 104 17973724976047204944
21452121 199 17978773937879708002
21650355 55 18336811023368247152
23184049 29 18266174114043209686
2334 1 17979922940652889167
23366157 5 17753324563446112436
23558518 356 18336269058118839872
23559900 14 18269554013055947142
23728640 28 18337946805499433754
2748010 2 17398679995447270965
3091708 16 9201123986266649403
34934 24 17621042396691231631
352729 6 18341058496973838831
5265222 85 17978804411501342190
58807428 26 18123750850792275291
7364860 26 17761492891195213494
81228 2 18267841983125558030
90316 7 18116983408822304848

> <PUBCHEM_SHAPE_MULTIPOLES>
436.03
6.5
5.54
1.08
7.49
0.47
-0.48
1.44
-2.66
-3.95
0.65
0.7
-0.35
-1.72

> <PUBCHEM_SHAPE_SELFOVERLAP>
951.839

> <PUBCHEM_SHAPE_VOLUME>
239.8

> <PUBCHEM_COORDINATE_TYPE>
2
5
10

$$$$
