169607
  -OEChem-02172602293D

 31 31  0     1  0  0  0  0  0999 V2000
    0.6158    2.3623   -0.8931 O   0  0  0  0  0  0  0  0  0  0  0  0
    2.3183    0.5854    2.4880 O   0  0  0  0  0  0  0  0  0  0  0  0
   -2.6447   -0.4451    0.8636 O   0  0  0  0  0  0  0  0  0  0  0  0
    1.4757   -3.1600   -1.5523 O   0  0  0  0  0  0  0  0  0  0  0  0
   -3.3203    0.9685   -0.8408 O   0  0  0  0  0  0  0  0  0  0  0  0
    1.3261   -2.8253    0.6941 O   0  0  0  0  0  0  0  0  0  0  0  0
   -0.0354   -0.3301    0.1453 C   0  0  1  0  0  0  0  0  0  0  0  0
    1.3649    0.3062    0.2918 C   0  0  1  0  0  0  0  0  0  0  0  0
    1.6212    1.3373   -0.8249 C   0  0  2  0  0  0  0  0  0  0  0  0
   -1.0306    0.7112   -0.2851 C   0  0  0  0  0  0  0  0  0  0  0  0
   -0.0065   -1.4932   -0.8526 C   0  0  0  0  0  0  0  0  0  0  0  0
    2.9768    2.0272   -0.6956 C   0  0  0  0  0  0  0  0  0  0  0  0
   -0.6715    1.9216   -0.7291 C   0  0  0  0  0  0  0  0  0  0  0  0
    1.4912    0.9376    1.6535 C   0  0  0  0  0  0  0  0  0  0  0  0
   -2.4641    0.4471   -0.1432 C   0  0  0  0  0  0  0  0  0  0  0  0
    0.9873   -2.5435   -0.4455 C   0  0  0  0  0  0  0  0  0  0  0  0
   -4.0044   -0.8073    1.1258 C   0  0  0  0  0  0  0  0  0  0  0  0
   -0.3132   -0.7283    1.1308 H   0  0  0  0  0  0  0  0  0  0  0  0
    2.1595   -0.4467    0.2450 H   0  0  0  0  0  0  0  0  0  0  0  0
    1.6158    0.8190   -1.7933 H   0  0  0  0  0  0  0  0  0  0  0  0
   -0.9867   -1.9792   -0.9212 H   0  0  0  0  0  0  0  0  0  0  0  0
    0.2513   -1.1247   -1.8532 H   0  0  0  0  0  0  0  0  0  0  0  0
    3.7918    1.2990   -0.6422 H   0  0  0  0  0  0  0  0  0  0  0  0
    3.1511    2.6791   -1.5589 H   0  0  0  0  0  0  0  0  0  0  0  0
    3.0165    2.6724    0.1883 H   0  0  0  0  0  0  0  0  0  0  0  0
   -1.3618    2.7164   -0.9789 H   0  0  0  0  0  0  0  0  0  0  0  0
    0.7871    1.7556    1.8833 H   0  0  0  0  0  0  0  0  0  0  0  0
    2.1305   -3.8543   -1.3251 H   0  0  0  0  0  0  0  0  0  0  0  0
   -4.0120   -1.5235    1.9519 H   0  0  0  0  0  0  0  0  0  0  0  0
   -4.4459   -1.2824    0.2445 H   0  0  0  0  0  0  0  0  0  0  0  0
   -4.5813    0.0747    1.4198 H   0  0  0  0  0  0  0  0  0  0  0  0
  1  9  1  0  0  0  0
  1 13  1  0  0  0  0
  2 14  2  0  0  0  0
  3 15  1  0  0  0  0
  3 17  1  0  0  0  0
  4 16  1  0  0  0  0
  4 28  1  0  0  0  0
  5 15  2  0  0  0  0
  6 16  2  0  0  0  0
  7  8  1  0  0  0  0
  7 10  1  0  0  0  0
  7 11  1  0  0  0  0
  7 18  1  0  0  0  0
  8  9  1  0  0  0  0
  8 14  1  0  0  0  0
  8 19  1  0  0  0  0
  9 12  1  0  0  0  0
  9 20  1  0  0  0  0
 10 13  2  0  0  0  0
 10 15  1  0  0  0  0
 11 16  1  0  0  0  0
 11 21  1  0  0  0  0
 11 22  1  0  0  0  0
 12 23  1  0  0  0  0
 12 24  1  0  0  0  0
 12 25  1  0  0  0  0
 13 26  1  0  0  0  0
 14 27  1  0  0  0  0
 17 29  1  0  0  0  0
 17 30  1  0  0  0  0
 17 31  1  0  0  0  0
M  END
> <PUBCHEM_COMPOUND_CID>
169607

> <PUBCHEM_CONFORMER_RMSD>
0.8

> <PUBCHEM_CONFORMER_DIVERSEORDER>
1
15
10
9
13
7
5
14
16
2
8
3
11
4
12
6

> <PUBCHEM_MMFF94_PARTIAL_CHARGES>
19
1 -0.36
10 -0.12
11 0.06
13 -0.07
14 0.45
15 0.71
16 0.66
17 0.28
2 -0.57
26 0.15
27 0.06
28 0.5
3 -0.43
4 -0.65
5 -0.57
6 -0.57
7 0.14
8 0.06
9 0.28

> <PUBCHEM_EFFECTIVE_ROTOR_COUNT>
5.8

> <PUBCHEM_PHARMACOPHORE_FEATURES>
7
1 1 acceptor
1 2 acceptor
1 4 acceptor
1 5 acceptor
1 6 acceptor
3 4 6 16 anion
6 1 7 8 9 10 13 rings

> <PUBCHEM_HEAVY_ATOM_COUNT>
17

> <PUBCHEM_ATOM_DEF_STEREO_COUNT>
3

> <PUBCHEM_ATOM_UDEF_STEREO_COUNT>
0

> <PUBCHEM_BOND_DEF_STEREO_COUNT>
0

> <PUBCHEM_BOND_UDEF_STEREO_COUNT>
0

> <PUBCHEM_ISOTOPIC_ATOM_COUNT>
0

> <PUBCHEM_COMPONENT_COUNT>
1

> <PUBCHEM_CACTVS_TAUTO_COUNT>
2

> <PUBCHEM_CONFORMER_ID>
0002968700000001

> <PUBCHEM_MMFF94_ENERGY>
34.6927

> <PUBCHEM_FEATURE_SELFOVERLAP>
35.581

> <PUBCHEM_SHAPE_FINGERPRINT>
11680611 10 17686319263654761168
12138202 78 18265052431620295629
12423570 1 10116643849103613496
12592029 89 18261686943013964578
13898156 1 17540791220554563040
14252887 29 17752516336927489587
14817 1 10956500841325106426
15309172 13 18266745860068814005
16945 1 18269010703618776820
17990270 104 18260271828404177901
19873495 37 17533504692715466692
20511035 2 17982438313703259749
20711985 344 17333365105011142790
21061003 4 17484797117494012827
22112679 90 17685753011262230160
23419403 2 17404542647243899124
23557571 272 17264133857289671446
2748010 2 17977088081463709581
298252 57 18045236078752753804
3060560 45 18264777734212812973
576247 118 17837224679183146119
68419 9 17540510840852658648
7364860 26 18339652143775608909
7832392 63 15530266223844514639
81228 2 17334765878176586115
84936 31 17845075299410753294

> <PUBCHEM_SHAPE_MULTIPOLES>
314.64
4.52
3.09
1.56
4.35
2.85
0.88
-1.5
1.15
-1.84
-1.37
-0.82
0.06
0.45

> <PUBCHEM_SHAPE_SELFOVERLAP>
643.902

> <PUBCHEM_SHAPE_VOLUME>
179.1

> <PUBCHEM_COORDINATE_TYPE>
2
5
10

$$$$
