5487461
  -OEChem-02172602353D

 45 49  0     1  0  0  0  0  0999 V2000
    3.3731   -0.3550   -1.0119 O   0  0  0  0  0  0  0  0  0  0  0  0
    2.6230   -0.4672    1.1964 O   0  0  0  0  0  0  0  0  0  0  0  0
    7.2743   -0.0391    0.2431 O   0  0  0  0  0  0  0  0  0  0  0  0
    5.1250    0.5944    2.0645 O   0  0  0  0  0  0  0  0  0  0  0  0
    6.5291    0.6871   -2.5158 O   0  0  0  0  0  0  0  0  0  0  0  0
   -1.5844   -2.5392    0.1580 O   0  0  0  0  0  0  0  0  0  0  0  0
   -2.6635    2.3842    0.1881 O   0  0  0  0  0  0  0  0  0  0  0  0
    1.1064   -2.7462    0.7387 O   0  0  0  0  0  0  0  0  0  0  0  0
   -5.3544    2.5910   -0.3932 O   0  0  0  0  0  0  0  0  0  0  0  0
   -0.6632    3.3872    0.6855 O   0  0  0  0  0  0  0  0  0  0  0  0
   -3.5854   -3.5425   -0.3363 O   0  0  0  0  0  0  0  0  0  0  0  0
   -6.8708    0.3122   -0.8510 O   0  0  0  0  0  0  0  0  0  0  0  0
    5.9985    0.4572   -0.1640 C   0  0  2  0  0  0  0  0  0  0  0  0
    4.9491   -0.0709    0.8139 C   0  0  2  0  0  0  0  0  0  0  0  0
    5.7017   -0.0073   -1.5894 C   0  0  1  0  0  0  0  0  0  0  0  0
    3.5291    0.1771    0.3021 C   0  0  1  0  0  0  0  0  0  0  0  0
    4.2477    0.2629   -1.9495 C   0  0  0  0  0  0  0  0  0  0  0  0
   -1.4248   -0.1233    0.3245 C   0  0  0  0  0  0  0  0  0  0  0  0
    1.2941   -0.3672    0.9091 C   0  0  0  0  0  0  0  0  0  0  0  0
   -2.8231   -0.0318    0.0217 C   0  0  0  0  0  0  0  0  0  0  0  0
   -0.6612    1.0199    0.5546 C   0  0  0  0  0  0  0  0  0  0  0  0
   -0.8196   -1.3731    0.3897 C   0  0  0  0  0  0  0  0  0  0  0  0
    0.5336   -1.5137    0.6796 C   0  0  0  0  0  0  0  0  0  0  0  0
    0.7021    0.8996    0.8478 C   0  0  0  0  0  0  0  0  0  0  0  0
   -3.5867   -1.1750   -0.2086 C   0  0  0  0  0  0  0  0  0  0  0  0
   -3.4283    1.2180   -0.0437 C   0  0  0  0  0  0  0  0  0  0  0  0
   -1.2972    2.3591    0.4876 C   0  0  0  0  0  0  0  0  0  0  0  0
   -2.9508   -2.5142   -0.1413 C   0  0  0  0  0  0  0  0  0  0  0  0
   -4.7815    1.3586   -0.3341 C   0  0  0  0  0  0  0  0  0  0  0  0
   -4.9499   -1.0548   -0.5023 C   0  0  0  0  0  0  0  0  0  0  0  0
   -5.5419    0.2121   -0.5638 C   0  0  0  0  0  0  0  0  0  0  0  0
    6.0612    1.5519   -0.1252 H   0  0  0  0  0  0  0  0  0  0  0  0
    5.0999   -1.1427    0.9961 H   0  0  0  0  0  0  0  0  0  0  0  0
    5.9184   -1.0784   -1.6831 H   0  0  0  0  0  0  0  0  0  0  0  0
    3.3302    1.2567    0.2962 H   0  0  0  0  0  0  0  0  0  0  0  0
    4.0374    1.3385   -2.0071 H   0  0  0  0  0  0  0  0  0  0  0  0
    4.0275   -0.1454   -2.9421 H   0  0  0  0  0  0  0  0  0  0  0  0
    1.2953    1.7879    1.0475 H   0  0  0  0  0  0  0  0  0  0  0  0
    7.4968    0.3781    1.0923 H   0  0  0  0  0  0  0  0  0  0  0  0
    5.9783    0.3109    2.4332 H   0  0  0  0  0  0  0  0  0  0  0  0
    7.4527    0.5325   -2.2533 H   0  0  0  0  0  0  0  0  0  0  0  0
   -5.5603   -1.9357   -0.6846 H   0  0  0  0  0  0  0  0  0  0  0  0
    2.0499   -2.6359    0.9494 H   0  0  0  0  0  0  0  0  0  0  0  0
   -6.3115    2.5147   -0.2498 H   0  0  0  0  0  0  0  0  0  0  0  0
   -7.0631    1.1955   -1.2048 H   0  0  0  0  0  0  0  0  0  0  0  0
  1 16  1  0  0  0  0
  1 17  1  0  0  0  0
  2 16  1  0  0  0  0
  2 19  1  0  0  0  0
  3 13  1  0  0  0  0
  3 39  1  0  0  0  0
  4 14  1  0  0  0  0
  4 40  1  0  0  0  0
  5 15  1  0  0  0  0
  5 41  1  0  0  0  0
  6 22  1  0  0  0  0
  6 28  1  0  0  0  0
  7 26  1  0  0  0  0
  7 27  1  0  0  0  0
  8 23  1  0  0  0  0
  8 43  1  0  0  0  0
  9 29  1  0  0  0  0
  9 44  1  0  0  0  0
 10 27  2  0  0  0  0
 11 28  2  0  0  0  0
 12 31  1  0  0  0  0
 12 45  1  0  0  0  0
 13 14  1  0  0  0  0
 13 15  1  0  0  0  0
 13 32  1  0  0  0  0
 14 16  1  0  0  0  0
 14 33  1  0  0  0  0
 15 17  1  0  0  0  0
 15 34  1  0  0  0  0
 16 35  1  0  0  0  0
 17 36  1  0  0  0  0
 17 37  1  0  0  0  0
 18 20  1  0  0  0  0
 18 21  1  0  0  0  0
 18 22  2  0  0  0  0
 19 23  2  0  0  0  0
 19 24  1  0  0  0  0
 20 25  1  0  0  0  0
 20 26  2  0  0  0  0
 21 24  2  0  0  0  0
 21 27  1  0  0  0  0
 22 23  1  0  0  0  0
 24 38  1  0  0  0  0
 25 28  1  0  0  0  0
 25 30  2  0  0  0  0
 26 29  1  0  0  0  0
 29 31  2  0  0  0  0
 30 31  1  0  0  0  0
 30 42  1  0  0  0  0
M  END
> <PUBCHEM_COMPOUND_CID>
5487461

> <PUBCHEM_CONFORMER_RMSD>
0.8

> <PUBCHEM_CONFORMER_DIVERSEORDER>
2
21
25
3
13
9
29
24
30
17
6
12
10
27
15
18
19
7
11
22
8
14
26
28
20
16
1
23
5
4

> <PUBCHEM_MMFF94_PARTIAL_CHARGES>
37
1 -0.56
10 -0.57
11 -0.57
12 -0.53
13 0.28
14 0.28
15 0.28
16 0.56
17 0.28
19 0.08
2 -0.36
21 0.09
22 0.08
23 0.08
24 -0.15
25 0.09
26 0.08
27 0.63
28 0.63
29 0.08
3 -0.68
30 -0.15
31 0.08
38 0.15
39 0.4
4 -0.68
40 0.4
41 0.4
42 0.15
43 0.45
44 0.45
45 0.45
5 -0.68
6 -0.23
7 -0.23
8 -0.53
9 -0.53

> <PUBCHEM_EFFECTIVE_ROTOR_COUNT>
3.2

> <PUBCHEM_PHARMACOPHORE_FEATURES>
18
1 1 acceptor
1 10 acceptor
1 11 acceptor
1 12 donor
1 2 acceptor
1 3 acceptor
1 3 donor
1 4 acceptor
1 4 donor
1 5 acceptor
1 5 donor
1 8 donor
1 9 donor
6 1 13 14 15 16 17 rings
6 18 19 21 22 23 24 rings
6 20 25 26 29 30 31 rings
6 6 18 20 22 25 28 rings
6 7 18 20 21 26 27 rings

> <PUBCHEM_HEAVY_ATOM_COUNT>
31

> <PUBCHEM_ATOM_DEF_STEREO_COUNT>
4

> <PUBCHEM_ATOM_UDEF_STEREO_COUNT>
0

> <PUBCHEM_BOND_DEF_STEREO_COUNT>
0

> <PUBCHEM_BOND_UDEF_STEREO_COUNT>
0

> <PUBCHEM_ISOTOPIC_ATOM_COUNT>
0

> <PUBCHEM_COMPONENT_COUNT>
1

> <PUBCHEM_CACTVS_TAUTO_COUNT>
81

> <PUBCHEM_CONFORMER_ID>
0053BB6500000002

> <PUBCHEM_MMFF94_ENERGY>
119.6614

> <PUBCHEM_FEATURE_SELFOVERLAP>
91.542

> <PUBCHEM_SHAPE_FINGERPRINT>
10411042 1 17977942712012473579
10670039 82 18335710390975819532
10906281 52 18265340517369280857
11513181 2 17625250193051430333
11578080 2 13972868051812660113
12011746 2 18342730819958203221
12236239 1 17749106699455692642
12390115 104 18201162032182854321
12616971 3 17167854266846386202
12788726 201 18337389348745672905
12838862 33 18266713871790722913
12954195 1 17988090980180232752
13140716 1 18123182666254817643
13540713 4 18052806233895614329
13540713 5 18051126991307570529
13617811 41 18408039598239462597
13690498 29 18194406812882940439
13782708 43 17131838655508942254
13911987 19 18335972070632782053
14294032 229 18116995490191379452
14765038 42 18129671781966046761
14767858 380 18335415768819028477
14790565 3 17981890744571460297
14840074 17 17530690895982603693
14910302 57 18341898425152372550
14931854 50 18339911642185394493
15082195 135 18341065085865550308
15131766 46 16443636821038419702
15183329 4 18335143093892833692
15328829 1 17749657520679836210
15575132 122 17895193247403303781
16087824 20 18410565203605553799
16988056 13 15307017298812580468
17492 54 18335410241602326005
18608769 82 18337112367339014091
19319366 153 17968369061973182739
19958102 18 18337105662093101670
20511986 3 17822276981838629796
21033648 144 16371290060127912350
21033650 10 18193301653630944020
21267235 1 18340766035877070803
22061861 79 16988847181037784742
22122407 14 16009043760597024108
23366157 5 17827076212818936754
23557571 272 18131071532781398264
23559900 14 18271800280625337856
23569914 152 16552007671979581268
25147074 1 18041548166466365610
255183 451 17693658530168789455
2838139 119 16443061716469819292
3004659 81 18334857251256571364
335352 9 18411972586529869669
34797466 226 17846777446822224472
350125 39 18409722947180056269
437815 12 17418095433620873153
46194498 28 17561361786642675656
474 4 17458067041019829314
484989 97 18192137413021152783
513202 73 14763805039228837936
5486654 2 18411132503252796865
58902169 19 17822013121081723190
59755656 215 18343300345058447734
59755656 520 16950279619960073498
6608658 132 17968107378068680556
7237137 82 18334857246655194311

> <PUBCHEM_SHAPE_MULTIPOLES>
567.53
15.87
2.8
1.36
14.34
0.41
0.47
-2.66
6.32
-4.31
-0.35
2.81
-0.18
-0.33

> <PUBCHEM_SHAPE_SELFOVERLAP>
1283.565

> <PUBCHEM_SHAPE_VOLUME>
293

> <PUBCHEM_COORDINATE_TYPE>
2
5
10

$$$$
