10091882
  -OEChem-02172602533D

 46 49  0     0  0  0  0  0  0999 V2000
    6.4583   -3.3432   -0.2693 Cl  0  0  0  0  0  0  0  0  0  0  0  0
   -5.3712    1.2804   -0.8469 O   0  0  0  0  0  0  0  0  0  0  0  0
   -6.4342   -1.0025    0.3300 O   0  0  0  0  0  0  0  0  0  0  0  0
   -0.3199    0.9707    0.1386 N   0  0  0  0  0  0  0  0  0  0  0  0
    0.0117   -1.2236    0.0560 N   0  0  0  0  0  0  0  0  0  0  0  0
    3.7498    4.0521    0.0702 N   0  0  0  0  0  0  0  0  0  0  0  0
    1.0344    0.7990    0.0786 C   0  0  0  0  0  0  0  0  0  0  0  0
    1.2109   -0.5614    0.0289 C   0  0  0  0  0  0  0  0  0  0  0  0
   -0.8916   -0.2710    0.1227 C   0  0  0  0  0  0  0  0  0  0  0  0
   -2.3215   -0.4564    0.1744 C   0  0  0  0  0  0  0  0  0  0  0  0
    2.4775   -1.2344   -0.0431 C   0  0  0  0  0  0  0  0  0  0  0  0
    1.9599    1.9043    0.0760 C   0  0  0  0  0  0  0  0  0  0  0  0
   -3.1702    0.5095   -0.3660 C   0  0  0  0  0  0  0  0  0  0  0  0
   -2.8548   -1.6022    0.7645 C   0  0  0  0  0  0  0  0  0  0  0  0
   -4.5524    0.3296   -0.3166 C   0  0  0  0  0  0  0  0  0  0  0  0
    3.1410   -1.5989    1.1283 C   0  0  0  0  0  0  0  0  0  0  0  0
    3.0447   -1.5221   -1.2846 C   0  0  0  0  0  0  0  0  0  0  0  0
   -5.0859   -0.8163    0.2735 C   0  0  0  0  0  0  0  0  0  0  0  0
   -4.2371   -1.7822    0.8141 C   0  0  0  0  0  0  0  0  0  0  0  0
    2.3599    2.4771   -1.1265 C   0  0  0  0  0  0  0  0  0  0  0  0
    2.4543    2.4049    1.2757 C   0  0  0  0  0  0  0  0  0  0  0  0
    4.3721   -2.2512    1.0583 C   0  0  0  0  0  0  0  0  0  0  0  0
    4.2757   -2.1746   -1.3544 C   0  0  0  0  0  0  0  0  0  0  0  0
    4.9394   -2.5390   -0.1830 C   0  0  0  0  0  0  0  0  0  0  0  0
    3.2482    3.5391   -1.0757 C   0  0  0  0  0  0  0  0  0  0  0  0
    3.3386    3.4702    1.2190 C   0  0  0  0  0  0  0  0  0  0  0  0
   -5.7970    2.3275    0.0228 C   0  0  0  0  0  0  0  0  0  0  0  0
   -7.0406   -1.6854   -0.7655 C   0  0  0  0  0  0  0  0  0  0  0  0
   -0.8015    1.8586    0.1987 H   0  0  0  0  0  0  0  0  0  0  0  0
   -2.7797    1.4051   -0.8438 H   0  0  0  0  0  0  0  0  0  0  0  0
   -2.2112   -2.3659    1.1945 H   0  0  0  0  0  0  0  0  0  0  0  0
    2.7123   -1.3815    2.1039 H   0  0  0  0  0  0  0  0  0  0  0  0
    2.5402   -1.2443   -2.2070 H   0  0  0  0  0  0  0  0  0  0  0  0
   -4.6459   -2.6763    1.2768 H   0  0  0  0  0  0  0  0  0  0  0  0
    1.9962    2.1147   -2.0827 H   0  0  0  0  0  0  0  0  0  0  0  0
    2.1661    1.9849    2.2340 H   0  0  0  0  0  0  0  0  0  0  0  0
    4.8781   -2.5290    1.9794 H   0  0  0  0  0  0  0  0  0  0  0  0
    4.7059   -2.3921   -2.3286 H   0  0  0  0  0  0  0  0  0  0  0  0
    3.5910    4.0204   -1.9858 H   0  0  0  0  0  0  0  0  0  0  0  0
    3.7529    3.8969    2.1265 H   0  0  0  0  0  0  0  0  0  0  0  0
   -6.3637    1.9212    0.8665 H   0  0  0  0  0  0  0  0  0  0  0  0
   -6.4471    3.0000   -0.5435 H   0  0  0  0  0  0  0  0  0  0  0  0
   -4.9361    2.8969    0.3873 H   0  0  0  0  0  0  0  0  0  0  0  0
   -8.1157   -1.7491   -0.5767 H   0  0  0  0  0  0  0  0  0  0  0  0
   -6.6399   -2.7002   -0.8539 H   0  0  0  0  0  0  0  0  0  0  0  0
   -6.8811   -1.1356   -1.6985 H   0  0  0  0  0  0  0  0  0  0  0  0
  1 24  1  0  0  0  0
  2 15  1  0  0  0  0
  2 27  1  0  0  0  0
  3 18  1  0  0  0  0
  3 28  1  0  0  0  0
  4  7  1  0  0  0  0
  4  9  1  0  0  0  0
  4 29  1  0  0  0  0
  5  8  1  0  0  0  0
  5  9  2  0  0  0  0
  6 25  2  0  0  0  0
  6 26  1  0  0  0  0
  7  8  2  0  0  0  0
  7 12  1  0  0  0  0
  8 11  1  0  0  0  0
  9 10  1  0  0  0  0
 10 13  2  0  0  0  0
 10 14  1  0  0  0  0
 11 16  2  0  0  0  0
 11 17  1  0  0  0  0
 12 20  2  0  0  0  0
 12 21  1  0  0  0  0
 13 15  1  0  0  0  0
 13 30  1  0  0  0  0
 14 19  2  0  0  0  0
 14 31  1  0  0  0  0
 15 18  2  0  0  0  0
 16 22  1  0  0  0  0
 16 32  1  0  0  0  0
 17 23  2  0  0  0  0
 17 33  1  0  0  0  0
 18 19  1  0  0  0  0
 19 34  1  0  0  0  0
 20 25  1  0  0  0  0
 20 35  1  0  0  0  0
 21 26  2  0  0  0  0
 21 36  1  0  0  0  0
 22 24  2  0  0  0  0
 22 37  1  0  0  0  0
 23 24  1  0  0  0  0
 23 38  1  0  0  0  0
 25 39  1  0  0  0  0
 26 40  1  0  0  0  0
 27 41  1  0  0  0  0
 27 42  1  0  0  0  0
 27 43  1  0  0  0  0
 28 44  1  0  0  0  0
 28 45  1  0  0  0  0
 28 46  1  0  0  0  0
M  END
> <PUBCHEM_COMPOUND_CID>
10091882

> <PUBCHEM_CONFORMER_RMSD>
0.8

> <PUBCHEM_CONFORMER_DIVERSEORDER>
1
15
16
5
12
7
13
6
14
9
10
8
4
17
11
3
2

> <PUBCHEM_MMFF94_PARTIAL_CHARGES>
40
1 -0.18
10 0.05
11 0.05
12 0.05
13 -0.15
14 -0.15
15 0.08
16 -0.15
17 -0.15
18 0.08
19 -0.15
2 -0.36
20 -0.15
21 -0.15
22 -0.15
23 -0.15
24 0.18
25 0.16
26 0.16
27 0.28
28 0.28
29 0.27
3 -0.36
30 0.15
31 0.15
32 0.15
33 0.15
34 0.15
35 0.15
36 0.15
37 0.15
38 0.15
39 0.15
4 0.03
40 0.15
5 -0.57
6 -0.62
7 -0.2
8 0.17
9 0.13

> <PUBCHEM_EFFECTIVE_ROTOR_COUNT>
5

> <PUBCHEM_PHARMACOPHORE_FEATURES>
9
1 2 acceptor
1 3 acceptor
1 4 donor
1 6 acceptor
3 4 5 9 cation
5 4 5 7 8 9 rings
6 10 13 14 15 18 19 rings
6 11 16 17 22 23 24 rings
6 6 12 20 21 25 26 rings

> <PUBCHEM_HEAVY_ATOM_COUNT>
28

> <PUBCHEM_ATOM_DEF_STEREO_COUNT>
0

> <PUBCHEM_ATOM_UDEF_STEREO_COUNT>
0

> <PUBCHEM_BOND_DEF_STEREO_COUNT>
0

> <PUBCHEM_BOND_UDEF_STEREO_COUNT>
0

> <PUBCHEM_ISOTOPIC_ATOM_COUNT>
0

> <PUBCHEM_COMPONENT_COUNT>
1

> <PUBCHEM_CACTVS_TAUTO_COUNT>
3

> <PUBCHEM_CONFORMER_ID>
0099FD6A00000001

> <PUBCHEM_MMFF94_ENERGY>
97.5112

> <PUBCHEM_FEATURE_SELFOVERLAP>
45.676

> <PUBCHEM_SHAPE_FINGERPRINT>
10050765 1 18409449219828092211
10190108 129 17404313278784861755
10369192 42 17900261111276087540
10411042 1 18339362938617751698
10721379 63 18339093656963569284
11405975 8 18408041801926372457
12166972 35 18272932700070814410
12516196 113 18340205181483152658
12549972 3 17822589281558053185
12616971 3 17988921185227937311
12730499 353 18196382630512938201
12741549 16 17201341977099338010
12788726 201 17754739325990205674
133893 2 18193866871100601904
13533116 47 18341050813171851387
13540713 4 18187930629201850779
13540713 5 18129119886493827097
13590594 115 18192723245473786816
1361 4 18124593348237938703
13757389 114 17110456736446863172
13782708 43 18335424582430296291
13955234 65 18340208604392239776
140371 6 18128546967831140171
14347329 18 16155099483917019261
14955137 171 18270962337127623630
15183329 4 16950567632014443783
15439362 3 18265615558427284260
15927050 60 18053383481864242310
17844677 252 18410295800826512625
1813 80 18129391414737379118
18222031 100 18201443519770361334
18681886 176 18411976932288434034
20238998 120 18270116795933399008
20771845 65 18131352977888244306
21049683 271 18334866013464271348
21267235 1 18334019372341966675
21304303 172 17913492337914926800
2132832 1 18060145292831641472
21709351 56 18338791226804342551
21859007 373 17387384927643887365
22182313 1 17895737582667510965
23559900 14 18409725145121572227
249057 25 17775575226160767571
249057 3 18339079264475185397
249999 5 18340485690186849216
3004659 81 17895199840373592982
335352 9 18263925441429926861
3411729 13 18264483052649614360
4144715 1 18333735736473869409
44802255 64 17252333271968066708
5104073 3 18409453596584494417
5219985 13 17762337316141897236
5385378 56 18268713977493331752
59755656 215 18337113475029035268
6086070 43 18263067835097405099
6371380 46 18116146671973147653
9841814 1 18333725798067453922
9962374 69 18341888628063860655

> <PUBCHEM_SHAPE_MULTIPOLES>
551.41
15.72
4.61
1.14
20.17
4.06
0.02
-9.06
1.7
-8.42
0
-0.89
0.12
0.79

> <PUBCHEM_SHAPE_SELFOVERLAP>
1211.79

> <PUBCHEM_SHAPE_VOLUME>
300

> <PUBCHEM_COORDINATE_TYPE>
2
5
10

$$$$
