89899
  -OEChem-02172602403D

 42 41  0     0  0  0  0  0  0999 V2000
   -3.9969   -0.5937    0.2355 O   0  0  0  0  0  0  0  0  0  0  0  0
   -2.8313    0.2797    0.3052 O   0  0  0  0  0  0  0  0  0  0  0  0
   -1.7397   -1.7384    0.0337 O   0  0  0  0  0  0  0  0  0  0  0  0
    3.3582   -0.3240   -0.0955 C   0  0  0  0  0  0  0  0  0  0  0  0
    4.6006    0.5663   -0.0217 C   0  0  0  0  0  0  0  0  0  0  0  0
    2.0435    0.4494    0.0471 C   0  0  0  0  0  0  0  0  0  0  0  0
    5.8832   -0.2655   -0.0966 C   0  0  0  0  0  0  0  0  0  0  0  0
    0.8048   -0.4529    0.0472 C   0  0  0  0  0  0  0  0  0  0  0  0
    7.1257    0.6176    0.0151 C   0  0  0  0  0  0  0  0  0  0  0  0
   -0.4886    0.3359    0.2576 C   0  0  0  0  0  0  0  0  0  0  0  0
   -5.0811    0.2535   -0.1175 C   0  0  0  0  0  0  0  0  0  0  0  0
    8.4025   -0.2008   -0.0931 C   0  0  0  0  0  0  0  0  0  0  0  0
   -1.7308   -0.5251    0.1910 C   0  0  0  0  0  0  0  0  0  0  0  0
   -6.3328   -0.6164   -0.2122 C   0  0  0  0  0  0  0  0  0  0  0  0
   -4.7729    0.9010   -1.4667 C   0  0  0  0  0  0  0  0  0  0  0  0
   -5.2446    1.3134    0.9709 C   0  0  0  0  0  0  0  0  0  0  0  0
    3.3549   -0.8663   -1.0491 H   0  0  0  0  0  0  0  0  0  0  0  0
    3.4113   -1.0801    0.6978 H   0  0  0  0  0  0  0  0  0  0  0  0
    4.5799    1.2938   -0.8419 H   0  0  0  0  0  0  0  0  0  0  0  0
    4.5868    1.1347    0.9161 H   0  0  0  0  0  0  0  0  0  0  0  0
    1.9630    1.1774   -0.7694 H   0  0  0  0  0  0  0  0  0  0  0  0
    2.0671    1.0229    0.9821 H   0  0  0  0  0  0  0  0  0  0  0  0
    5.8895   -1.0084    0.7103 H   0  0  0  0  0  0  0  0  0  0  0  0
    5.9063   -0.8174   -1.0442 H   0  0  0  0  0  0  0  0  0  0  0  0
    0.9005   -1.2090    0.8365 H   0  0  0  0  0  0  0  0  0  0  0  0
    0.7539   -0.9989   -0.9030 H   0  0  0  0  0  0  0  0  0  0  0  0
    7.1171    1.3747   -0.7777 H   0  0  0  0  0  0  0  0  0  0  0  0
    7.1189    1.1507    0.9730 H   0  0  0  0  0  0  0  0  0  0  0  0
   -0.4659    0.8236    1.2385 H   0  0  0  0  0  0  0  0  0  0  0  0
   -0.5719    1.1059   -0.5182 H   0  0  0  0  0  0  0  0  0  0  0  0
    8.4555   -0.7199   -1.0555 H   0  0  0  0  0  0  0  0  0  0  0  0
    9.2783    0.4502   -0.0097 H   0  0  0  0  0  0  0  0  0  0  0  0
    8.4578   -0.9485    0.7045 H   0  0  0  0  0  0  0  0  0  0  0  0
   -6.5299   -1.1204    0.7410 H   0  0  0  0  0  0  0  0  0  0  0  0
   -6.2014   -1.4078   -0.9591 H   0  0  0  0  0  0  0  0  0  0  0  0
   -7.2159   -0.0282   -0.4823 H   0  0  0  0  0  0  0  0  0  0  0  0
   -3.9235    1.5911   -1.4170 H   0  0  0  0  0  0  0  0  0  0  0  0
   -4.5164    0.1409   -2.2137 H   0  0  0  0  0  0  0  0  0  0  0  0
   -5.6329    1.4701   -1.8365 H   0  0  0  0  0  0  0  0  0  0  0  0
   -5.3297    0.8467    1.9590 H   0  0  0  0  0  0  0  0  0  0  0  0
   -4.3910    1.9984    1.0205 H   0  0  0  0  0  0  0  0  0  0  0  0
   -6.1402    1.9205    0.7991 H   0  0  0  0  0  0  0  0  0  0  0  0
  1  2  1  0  0  0  0
  1 11  1  0  0  0  0
  2 13  1  0  0  0  0
  3 13  2  0  0  0  0
  4  5  1  0  0  0  0
  4  6  1  0  0  0  0
  4 17  1  0  0  0  0
  4 18  1  0  0  0  0
  5  7  1  0  0  0  0
  5 19  1  0  0  0  0
  5 20  1  0  0  0  0
  6  8  1  0  0  0  0
  6 21  1  0  0  0  0
  6 22  1  0  0  0  0
  7  9  1  0  0  0  0
  7 23  1  0  0  0  0
  7 24  1  0  0  0  0
  8 10  1  0  0  0  0
  8 25  1  0  0  0  0
  8 26  1  0  0  0  0
  9 12  1  0  0  0  0
  9 27  1  0  0  0  0
  9 28  1  0  0  0  0
 10 13  1  0  0  0  0
 10 29  1  0  0  0  0
 10 30  1  0  0  0  0
 11 14  1  0  0  0  0
 11 15  1  0  0  0  0
 11 16  1  0  0  0  0
 12 31  1  0  0  0  0
 12 32  1  0  0  0  0
 12 33  1  0  0  0  0
 14 34  1  0  0  0  0
 14 35  1  0  0  0  0
 14 36  1  0  0  0  0
 15 37  1  0  0  0  0
 15 38  1  0  0  0  0
 15 39  1  0  0  0  0
 16 40  1  0  0  0  0
 16 41  1  0  0  0  0
 16 42  1  0  0  0  0
M  END
> <PUBCHEM_COMPOUND_CID>
89899

> <PUBCHEM_CONFORMER_RMSD>
1

> <PUBCHEM_CONFORMER_DIVERSEORDER>
1
64
25
85
18
91
96
47
33
81
22
99
48
83
43
45
58
103
97
92
23
21
11
53
39
12
60
8
75
26
20
27
57
37
38
94
3
86
9
2
42
44
54
36
16
106
70
104
56
6
5
67
93
90
69
84
78
61
15
66
29
31
88
4
14
68
17
63
71
13
110
89
49
19
80
109
7
59
105
34
51
72
101
46
40
10
79
102
76
98
30
35
50
62
24
100
28
32
87
55
82
41
73
65
74
95
108
107
52
77

> <PUBCHEM_MMFF94_PARTIAL_CHARGES>
6
1 -0.28
10 0.06
11 0.28
13 0.66
2 -0.15
3 -0.57

> <PUBCHEM_EFFECTIVE_ROTOR_COUNT>
10

> <PUBCHEM_PHARMACOPHORE_FEATURES>
3
1 12 hydrophobe
1 3 acceptor
4 11 14 15 16 hydrophobe

> <PUBCHEM_HEAVY_ATOM_COUNT>
16

> <PUBCHEM_ATOM_DEF_STEREO_COUNT>
0

> <PUBCHEM_ATOM_UDEF_STEREO_COUNT>
0

> <PUBCHEM_BOND_DEF_STEREO_COUNT>
0

> <PUBCHEM_BOND_UDEF_STEREO_COUNT>
0

> <PUBCHEM_ISOTOPIC_ATOM_COUNT>
0

> <PUBCHEM_COMPONENT_COUNT>
1

> <PUBCHEM_CACTVS_TAUTO_COUNT>
1

> <PUBCHEM_CONFORMER_ID>
00015F2B00000001

> <PUBCHEM_MMFF94_ENERGY>
11.7498

> <PUBCHEM_FEATURE_SELFOVERLAP>
15.223

> <PUBCHEM_SHAPE_FINGERPRINT>
10066227 49 15769508521852492052
10968037 39 18410856563940031616
11089746 13 17846495950539287416
11315181 36 18411140255784680881
12091667 2 17022903454138489585
13533116 47 17916865717283593338
13964095 4 18259984868933461500
14123256 10 12679464188428859340
1420 363 10519987080119433828
14251752 14 17894624838725452236
14251764 18 18408321082064154802
14251764 46 18343584045097035055
14729087 3 18187078447413329460
15183329 4 18409727348719447904
15716309 27 8790888479913228784
17834072 8 18411699898359953064
17834076 25 18413671318355526854
18006028 8 17775566438462741128
19489759 90 17132117935377309313
20281389 69 17967811661048539212
20621476 8 18187364307952186142
21150785 3 18410852183469295151
21315763 28 18343301483367160432
220451 1 15936405668123137786
22224240 67 7853570193845076888
23035841 295 12247679374551325812
23402539 116 17775283850809841201
23521765 1 18341895198940894698
23559900 14 18130782408451849632
28498 318 18334575708335616502
300161 21 18335134306959594370
33684 2 18410855460128174794
3545911 37 18409448094167001954
42788 4 18410856568229737169
4463277 17 17749389274160419404
57583515 80 17703791422901799706
59755656 215 18334296436297444038
59755656 520 18335977644572501806
8209 1 18412826893704963244

> <PUBCHEM_SHAPE_MULTIPOLES>
311.66
22.5
1.07
0.82
28.74
0.09
0.15
-2.35
1.41
-1
-0.05
-1.02
-0.2
-0.02

> <PUBCHEM_SHAPE_SELFOVERLAP>
574.693

> <PUBCHEM_SHAPE_VOLUME>
198.7

> <PUBCHEM_COORDINATE_TYPE>
2
5
10

$$$$
