10115046
  -OEChem-02172602533D

 61 65  0     0  0  0  0  0  0999 V2000
    5.4481   -1.6689    0.6949 O   0  0  0  0  0  0  0  0  0  0  0  0
   -7.1049    1.4276   -0.5578 O   0  0  0  0  0  0  0  0  0  0  0  0
    5.2308    0.5751    0.0211 N   0  0  0  0  0  0  0  0  0  0  0  0
   -1.2220    0.4035   -0.1424 N   0  0  0  0  0  0  0  0  0  0  0  0
   -0.9406    2.5538    0.3445 N   0  0  0  0  0  0  0  0  0  0  0  0
   -6.3414   -0.6932    0.0939 N   0  0  0  0  0  0  0  0  0  0  0  0
   -7.4120   -2.7890    0.3325 N   0  0  0  0  0  0  0  0  0  0  0  0
   10.0588   -1.5428   -0.4288 C   0  0  0  0  0  0  0  0  0  0  0  0
    7.3937   -0.4073    0.1918 C   0  0  0  0  0  0  0  0  0  0  0  0
    9.3162   -0.6481   -1.4303 C   0  0  0  0  0  0  0  0  0  0  0  0
    9.6441   -1.2122    1.0113 C   0  0  0  0  0  0  0  0  0  0  0  0
    7.8024   -0.7298   -1.2456 C   0  0  0  0  0  0  0  0  0  0  0  0
    8.1302   -1.2953    1.1949 C   0  0  0  0  0  0  0  0  0  0  0  0
   11.5705   -1.4045   -0.5997 C   0  0  0  0  0  0  0  0  0  0  0  0
    5.9145   -0.5917    0.3384 C   0  0  0  0  0  0  0  0  0  0  0  0
    3.8317    0.7859    0.0413 C   0  0  0  0  0  0  0  0  0  0  0  0
    3.3284    2.0272   -0.3112 C   0  0  0  0  0  0  0  0  0  0  0  0
    2.9952   -0.2534    0.4129 C   0  0  0  0  0  0  0  0  0  0  0  0
    1.0930    1.1985    0.0802 C   0  0  0  0  0  0  0  0  0  0  0  0
    1.9492    2.2349   -0.2916 C   0  0  0  0  0  0  0  0  0  0  0  0
    1.6160   -0.0457    0.4325 C   0  0  0  0  0  0  0  0  0  0  0  0
   -0.3333    1.4136    0.1016 C   0  0  0  0  0  0  0  0  0  0  0  0
   -2.4863    0.9265   -0.0509 C   0  0  0  0  0  0  0  0  0  0  0  0
   -2.2839    2.2697    0.2538 C   0  0  0  0  0  0  0  0  0  0  0  0
   -3.7510    0.3574   -0.2039 C   0  0  0  0  0  0  0  0  0  0  0  0
   -3.3980    3.1098    0.4192 C   0  0  0  0  0  0  0  0  0  0  0  0
   -4.8486    1.2081   -0.0359 C   0  0  0  0  0  0  0  0  0  0  0  0
   -4.6775    2.5602    0.2702 C   0  0  0  0  0  0  0  0  0  0  0  0
   -6.1935    0.6726   -0.1837 C   0  0  0  0  0  0  0  0  0  0  0  0
   -7.5119   -1.4870    0.0143 C   0  0  0  0  0  0  0  0  0  0  0  0
   -8.6674   -0.8524   -0.3874 C   0  0  0  0  0  0  0  0  0  0  0  0
   -9.8222   -1.6225   -0.4696 C   0  0  0  0  0  0  0  0  0  0  0  0
   -8.5548   -3.5055    0.2407 C   0  0  0  0  0  0  0  0  0  0  0  0
   -9.7734   -2.9751   -0.1512 C   0  0  0  0  0  0  0  0  0  0  0  0
    9.7905   -2.5877   -0.6342 H   0  0  0  0  0  0  0  0  0  0  0  0
    7.6573    0.6360    0.4124 H   0  0  0  0  0  0  0  0  0  0  0  0
    9.6381    0.3944   -1.3104 H   0  0  0  0  0  0  0  0  0  0  0  0
    9.5713   -0.9427   -2.4553 H   0  0  0  0  0  0  0  0  0  0  0  0
   10.1311   -1.9040    1.7088 H   0  0  0  0  0  0  0  0  0  0  0  0
    9.9847   -0.2030    1.2762 H   0  0  0  0  0  0  0  0  0  0  0  0
    7.3150   -0.0376   -1.9433 H   0  0  0  0  0  0  0  0  0  0  0  0
    7.4571   -1.7356   -1.5195 H   0  0  0  0  0  0  0  0  0  0  0  0
    7.8240   -2.3438    1.0840 H   0  0  0  0  0  0  0  0  0  0  0  0
    7.8687   -1.0027    2.2193 H   0  0  0  0  0  0  0  0  0  0  0  0
   12.1014   -2.0671    0.0918 H   0  0  0  0  0  0  0  0  0  0  0  0
   11.8719   -1.6720   -1.6179 H   0  0  0  0  0  0  0  0  0  0  0  0
   11.9014   -0.3784   -0.4070 H   0  0  0  0  0  0  0  0  0  0  0  0
    5.7800    1.3819   -0.2675 H   0  0  0  0  0  0  0  0  0  0  0  0
    3.9865    2.8408   -0.6030 H   0  0  0  0  0  0  0  0  0  0  0  0
    3.3241   -1.2409    0.7016 H   0  0  0  0  0  0  0  0  0  0  0  0
    1.5624    3.2116   -0.5725 H   0  0  0  0  0  0  0  0  0  0  0  0
    0.9768   -0.8697    0.7400 H   0  0  0  0  0  0  0  0  0  0  0  0
   -1.0009   -0.5578   -0.3664 H   0  0  0  0  0  0  0  0  0  0  0  0
   -3.8348   -0.6876   -0.4776 H   0  0  0  0  0  0  0  0  0  0  0  0
   -3.2753    4.1614    0.6583 H   0  0  0  0  0  0  0  0  0  0  0  0
   -5.5362    3.2143    0.4051 H   0  0  0  0  0  0  0  0  0  0  0  0
   -5.5413   -1.2187    0.4336 H   0  0  0  0  0  0  0  0  0  0  0  0
   -8.7864    0.1846   -0.6497 H   0  0  0  0  0  0  0  0  0  0  0  0
  -10.7596   -1.1709   -0.7811 H   0  0  0  0  0  0  0  0  0  0  0  0
   -8.4636   -4.5552    0.4997 H   0  0  0  0  0  0  0  0  0  0  0  0
  -10.6611   -3.5946   -0.2081 H   0  0  0  0  0  0  0  0  0  0  0  0
  1 15  2  0  0  0  0
  2 29  2  0  0  0  0
  3 15  1  0  0  0  0
  3 16  1  0  0  0  0
  3 48  1  0  0  0  0
  4 22  1  0  0  0  0
  4 23  1  0  0  0  0
  4 53  1  0  0  0  0
  5 22  2  0  0  0  0
  5 24  1  0  0  0  0
  6 29  1  0  0  0  0
  6 30  1  0  0  0  0
  6 57  1  0  0  0  0
  7 30  1  0  0  0  0
  7 33  2  0  0  0  0
  8 10  1  0  0  0  0
  8 11  1  0  0  0  0
  8 14  1  0  0  0  0
  8 35  1  0  0  0  0
  9 12  1  0  0  0  0
  9 13  1  0  0  0  0
  9 15  1  0  0  0  0
  9 36  1  0  0  0  0
 10 12  1  0  0  0  0
 10 37  1  0  0  0  0
 10 38  1  0  0  0  0
 11 13  1  0  0  0  0
 11 39  1  0  0  0  0
 11 40  1  0  0  0  0
 12 41  1  0  0  0  0
 12 42  1  0  0  0  0
 13 43  1  0  0  0  0
 13 44  1  0  0  0  0
 14 45  1  0  0  0  0
 14 46  1  0  0  0  0
 14 47  1  0  0  0  0
 16 17  2  0  0  0  0
 16 18  1  0  0  0  0
 17 20  1  0  0  0  0
 17 49  1  0  0  0  0
 18 21  2  0  0  0  0
 18 50  1  0  0  0  0
 19 20  2  0  0  0  0
 19 21  1  0  0  0  0
 19 22  1  0  0  0  0
 20 51  1  0  0  0  0
 21 52  1  0  0  0  0
 23 24  2  0  0  0  0
 23 25  1  0  0  0  0
 24 26  1  0  0  0  0
 25 27  2  0  0  0  0
 25 54  1  0  0  0  0
 26 28  2  0  0  0  0
 26 55  1  0  0  0  0
 27 28  1  0  0  0  0
 27 29  1  0  0  0  0
 28 56  1  0  0  0  0
 30 31  2  0  0  0  0
 31 32  1  0  0  0  0
 31 58  1  0  0  0  0
 32 34  2  0  0  0  0
 32 59  1  0  0  0  0
 33 34  1  0  0  0  0
 33 60  1  0  0  0  0
 34 61  1  0  0  0  0
M  END
> <PUBCHEM_COMPOUND_CID>
10115046

> <PUBCHEM_CONFORMER_RMSD>
1

> <PUBCHEM_CONFORMER_DIVERSEORDER>
1
8
14
3
19
13
4
15
24
20
28
9
25
6
21
18
16
5
12
29
17
2
27
26
23
7
11
22
10

> <PUBCHEM_MMFF94_PARTIAL_CHARGES>
42
1 -0.57
15 0.57
16 0.12
17 -0.15
18 -0.15
19 0.05
2 -0.57
20 -0.15
21 -0.15
22 0.13
23 -0.15
24 0.23
25 -0.15
26 -0.15
27 0.09
28 -0.15
29 0.54
3 -0.55
30 0.43
31 -0.15
32 -0.15
33 0.16
34 -0.15
4 0.03
48 0.37
49 0.15
5 -0.57
50 0.15
51 0.15
52 0.15
53 0.27
54 0.15
55 0.15
56 0.15
57 0.37
58 0.15
59 0.15
6 -0.55
60 0.15
61 0.15
7 -0.62
9 0.06

> <PUBCHEM_EFFECTIVE_ROTOR_COUNT>
8.2

> <PUBCHEM_PHARMACOPHORE_FEATURES>
12
1 1 acceptor
1 2 acceptor
1 3 donor
1 4 donor
1 6 donor
1 7 acceptor
3 4 5 22 cation
5 4 5 22 23 24 rings
6 16 17 18 19 20 21 rings
6 23 24 25 26 27 28 rings
6 7 30 31 32 33 34 rings
6 8 9 10 11 12 13 rings

> <PUBCHEM_HEAVY_ATOM_COUNT>
34

> <PUBCHEM_ATOM_DEF_STEREO_COUNT>
0

> <PUBCHEM_ATOM_UDEF_STEREO_COUNT>
0

> <PUBCHEM_BOND_DEF_STEREO_COUNT>
0

> <PUBCHEM_BOND_UDEF_STEREO_COUNT>
0

> <PUBCHEM_ISOTOPIC_ATOM_COUNT>
0

> <PUBCHEM_COMPONENT_COUNT>
1

> <PUBCHEM_CACTVS_TAUTO_COUNT>
41

> <PUBCHEM_CONFORMER_ID>
009A57E600000001

> <PUBCHEM_MMFF94_ENERGY>
93.9072

> <PUBCHEM_FEATURE_SELFOVERLAP>
61.005

> <PUBCHEM_SHAPE_FINGERPRINT>
10100884 174 18408601500273858395
10162869 55 17603307047387985750
10299344 5 18188493476651173592
10411042 1 18411699924674056809
10533779 47 16056889001217450374
11061554 47 8502658099403895851
11135609 99 18411418453384846759
11386260 185 16298390209564527836
11409948 41 16443334331588842922
11409948 8 18201707493393313816
11421887 45 8790617944958063623
11456790 92 16559033800383657905
11463208 3 18341615927293931166
11578821 258 8862932884144410418
11607047 74 18193559094040368588
11756154 67 18408885148846463605
11828042 75 17896048796716419483
12013929 94 18413672401299260690
12089408 11 18187930526745205624
12522641 68 11169912788761228689
12539745 222 17917998257051387089
12592606 108 18407477760819129556
13248334 5 17833830857153382489
13383668 90 17749382673418256119
13553643 46 12391519672363727779
14202775 3 18271811169253974934
15065858 18 18271239436102235232
15152005 1 18050003596328068919
15247644 1 17918274250954054559
15274700 232 18337678615627540443
15461852 350 18261112954403989268
155225 1 8718830890518603263
16992752 21 18409165489893513025
1754911 235 14129060322235416638
1818759 1 18343022198412359775
19302320 297 12247677188777580170
19841028 212 18336543923336119521
20105231 36 18201442450750824694
20982279 24 17968954101570830299
21130935 74 18198903617903060474
21267235 1 18413389838794276717
212700 22 18342452621351125502
21362267 313 9223232924436065052
21781055 127 12391514222476892344
21792938 703 18341345413869987494
21927370 108 17203614774354265361
232437 2 18410012126726559854
23523788 1 17560818653762719997
23524908 199 12613025060581715648
23528940 14 18272086097766687086
23569917 315 18411142441438354830
23569943 247 17835245541754275858
23576562 1 14996860934235639559
23729417 116 18334292024697060701
25242607 90 18200868582610241547
2835820 83 18338236085502982787
2851757 41 18336550529866817387
306946 40 13551475904162428310
335352 9 18040720256191349128
3711267 37 9439121008955813107
4339292 15 18411135839898767983
4353968 344 18409163304145536517
44280117 145 18261955146268236389
4461854 278 17632577175515484583
44802255 64 13045944612623303977
4760202 170 14201406010480637054
4760202 70 18041006155179969844
5028188 123 18335423435162254036
54039377 194 18410856577199642583
54728670 133 15769506318692992793
5719381 82 18413109476588447303
57527295 17 17096072581481926657
5937810 71 12685077161235490471
636775 72 9439413428432197603
636775 8 18411139138829413815
9937071 3 17632580431506297934
9962374 69 18341045306696996532

> <PUBCHEM_SHAPE_MULTIPOLES>
663.06
42.28
3.34
0.87
29.8
0.27
0.06
44.41
5.12
-8.48
-0.29
1.7
0.2
-0.22

> <PUBCHEM_SHAPE_SELFOVERLAP>
1458.707

> <PUBCHEM_SHAPE_VOLUME>
355.2

> <PUBCHEM_COORDINATE_TYPE>
2
5
10

$$$$
