91750049
  -OEChem-02172602583D

 52 56  0     1  0  0  0  0  0999 V2000
   -3.2944   -0.0511    0.5986 C   0  0  1  0  0  0  0  0  0  0  0  0
   -3.5067    0.0789   -0.8771 C   0  0  2  0  0  0  0  0  0  0  0  0
   -3.0301   -1.2313   -0.3109 C   0  0  1  0  0  0  0  0  0  0  0  0
   -1.3184    0.8921   -0.3720 C   0  0  2  0  0  0  0  0  0  0  0  0
   -0.6143   -0.4760   -0.6674 C   0  0  2  0  0  0  0  0  0  0  0  0
   -2.1235    0.8351    0.9576 C   0  0  0  0  0  0  0  0  0  0  0  0
   -2.4861    1.0430   -1.4046 C   0  0  0  0  0  0  0  0  0  0  0  0
   -1.6117   -1.6665   -0.5514 C   0  0  0  0  0  0  0  0  0  0  0  0
    0.7765   -0.6877    0.0613 C   0  0  2  0  0  0  0  0  0  0  0  0
   -0.3655    2.0829   -0.4700 C   0  0  0  0  0  0  0  0  0  0  0  0
    1.6609    0.5758   -0.2597 C   0  0  1  0  0  0  0  0  0  0  0  0
   -4.4560   -0.0834    1.5342 C   0  0  0  0  0  0  0  0  0  0  0  0
    0.9762    1.8713    0.2279 C   0  0  0  0  0  0  0  0  0  0  0  0
    1.4681   -1.9405   -0.5493 C   0  0  0  0  0  0  0  0  0  0  0  0
    3.1846    0.4634    0.1020 C   0  0  0  0  0  0  0  0  0  0  0  0
    0.5941   -0.9296    1.5806 C   0  0  0  0  0  0  0  0  0  0  0  0
    2.9363   -2.0948   -0.1545 C   0  0  0  0  0  0  0  0  0  0  0  0
    3.7515   -0.8525   -0.4886 C   0  0  0  0  0  0  0  0  0  0  0  0
    3.4859    0.5490    1.6093 C   0  0  0  0  0  0  0  0  0  0  0  0
    3.9725    1.6219   -0.5659 C   0  0  0  0  0  0  0  0  0  0  0  0
   -4.4981    0.1668   -1.2901 H   0  0  0  0  0  0  0  0  0  0  0  0
   -3.7235   -2.0625   -0.3002 H   0  0  0  0  0  0  0  0  0  0  0  0
   -0.3596   -0.4334   -1.7396 H   0  0  0  0  0  0  0  0  0  0  0  0
   -1.5714    0.4393    1.8075 H   0  0  0  0  0  0  0  0  0  0  0  0
   -2.4869    1.8333    1.2323 H   0  0  0  0  0  0  0  0  0  0  0  0
   -2.1831    0.7975   -2.4275 H   0  0  0  0  0  0  0  0  0  0  0  0
   -2.8954    2.0601   -1.3964 H   0  0  0  0  0  0  0  0  0  0  0  0
   -1.3336   -2.3703    0.2368 H   0  0  0  0  0  0  0  0  0  0  0  0
   -1.5800   -2.2426   -1.4850 H   0  0  0  0  0  0  0  0  0  0  0  0
   -0.8400    2.9887   -0.0730 H   0  0  0  0  0  0  0  0  0  0  0  0
   -0.1639    2.2905   -1.5299 H   0  0  0  0  0  0  0  0  0  0  0  0
    1.6586    0.6506   -1.3605 H   0  0  0  0  0  0  0  0  0  0  0  0
   -4.1499   -0.4905    2.5031 H   0  0  0  0  0  0  0  0  0  0  0  0
   -5.2726   -0.7041    1.1503 H   0  0  0  0  0  0  0  0  0  0  0  0
   -4.8491    0.9257    1.6953 H   0  0  0  0  0  0  0  0  0  0  0  0
    1.5964    2.7444    0.0022 H   0  0  0  0  0  0  0  0  0  0  0  0
    0.8358    1.8751    1.3122 H   0  0  0  0  0  0  0  0  0  0  0  0
    1.4173   -1.8889   -1.6452 H   0  0  0  0  0  0  0  0  0  0  0  0
    0.9321   -2.8530   -0.2614 H   0  0  0  0  0  0  0  0  0  0  0  0
    0.4987   -0.0052    2.1521 H   0  0  0  0  0  0  0  0  0  0  0  0
    1.4259   -1.4801    2.0232 H   0  0  0  0  0  0  0  0  0  0  0  0
   -0.2870   -1.5358    1.8047 H   0  0  0  0  0  0  0  0  0  0  0  0
    3.0341   -2.3362    0.9082 H   0  0  0  0  0  0  0  0  0  0  0  0
    3.3584   -2.9517   -0.6939 H   0  0  0  0  0  0  0  0  0  0  0  0
    4.7859   -1.0037   -0.1541 H   0  0  0  0  0  0  0  0  0  0  0  0
    3.7975   -0.7663   -1.5831 H   0  0  0  0  0  0  0  0  0  0  0  0
    3.0450    1.4443    2.0591 H   0  0  0  0  0  0  0  0  0  0  0  0
    4.5676    0.6031    1.7843 H   0  0  0  0  0  0  0  0  0  0  0  0
    3.1351   -0.3177    2.1679 H   0  0  0  0  0  0  0  0  0  0  0  0
    3.7495    2.5895   -0.1055 H   0  0  0  0  0  0  0  0  0  0  0  0
    3.7453    1.6953   -1.6353 H   0  0  0  0  0  0  0  0  0  0  0  0
    5.0540    1.4670   -0.4710 H   0  0  0  0  0  0  0  0  0  0  0  0
  1  2  1  0  0  0  0
  1  3  1  0  0  0  0
  1  6  1  0  0  0  0
  1 12  1  0  0  0  0
  2  3  1  0  0  0  0
  2  7  1  0  0  0  0
  2 21  1  0  0  0  0
  3  8  1  0  0  0  0
  3 22  1  0  0  0  0
  4  5  1  0  0  0  0
  4  6  1  0  0  0  0
  4  7  1  0  0  0  0
  4 10  1  0  0  0  0
  5  8  1  0  0  0  0
  5  9  1  0  0  0  0
  5 23  1  0  0  0  0
  6 24  1  0  0  0  0
  6 25  1  0  0  0  0
  7 26  1  0  0  0  0
  7 27  1  0  0  0  0
  8 28  1  0  0  0  0
  8 29  1  0  0  0  0
  9 11  1  0  0  0  0
  9 14  1  0  0  0  0
  9 16  1  0  0  0  0
 10 13  1  0  0  0  0
 10 30  1  0  0  0  0
 10 31  1  0  0  0  0
 11 13  1  0  0  0  0
 11 15  1  0  0  0  0
 11 32  1  0  0  0  0
 12 33  1  0  0  0  0
 12 34  1  0  0  0  0
 12 35  1  0  0  0  0
 13 36  1  0  0  0  0
 13 37  1  0  0  0  0
 14 17  1  0  0  0  0
 14 38  1  0  0  0  0
 14 39  1  0  0  0  0
 15 18  1  0  0  0  0
 15 19  1  0  0  0  0
 15 20  1  0  0  0  0
 16 40  1  0  0  0  0
 16 41  1  0  0  0  0
 16 42  1  0  0  0  0
 17 18  1  0  0  0  0
 17 43  1  0  0  0  0
 17 44  1  0  0  0  0
 18 45  1  0  0  0  0
 18 46  1  0  0  0  0
 19 47  1  0  0  0  0
 19 48  1  0  0  0  0
 19 49  1  0  0  0  0
 20 50  1  0  0  0  0
 20 51  1  0  0  0  0
 20 52  1  0  0  0  0
M  END
> <PUBCHEM_COMPOUND_CID>
91750049

> <PUBCHEM_CONFORMER_RMSD>
0.6

> <PUBCHEM_CONFORMER_DIVERSEORDER>
1
6
3
4
2
5

> <PUBCHEM_MMFF94_PARTIAL_CHARGES>
9
1 -0.19
12 0.09
2 -0.19
21 0.1
22 0.1
3 -0.19
6 0.09
7 0.09
8 0.09

> <PUBCHEM_EFFECTIVE_ROTOR_COUNT>
1.8

> <PUBCHEM_PHARMACOPHORE_FEATURES>
4
3 15 19 20 hydrophobe
6 4 5 9 10 11 13 rings
6 9 11 14 15 17 18 rings
8 1 2 3 4 5 6 7 8 rings

> <PUBCHEM_HEAVY_ATOM_COUNT>
20

> <PUBCHEM_ATOM_DEF_STEREO_COUNT>
2

> <PUBCHEM_ATOM_UDEF_STEREO_COUNT>
5

> <PUBCHEM_BOND_DEF_STEREO_COUNT>
0

> <PUBCHEM_BOND_UDEF_STEREO_COUNT>
0

> <PUBCHEM_ISOTOPIC_ATOM_COUNT>
0

> <PUBCHEM_COMPONENT_COUNT>
1

> <PUBCHEM_CACTVS_TAUTO_COUNT>
1

> <PUBCHEM_CONFORMER_ID>
0577FEA100000001

> <PUBCHEM_MMFF94_ENERGY>
92.9602

> <PUBCHEM_FEATURE_SELFOVERLAP>
20.326

> <PUBCHEM_SHAPE_FINGERPRINT>
10863032 1 18060419144198930031
10967382 1 18411697716374207062
10980938 120 18412541016070471070
11132069 177 18410564115501279776
11578080 2 17272255043187458129
12173636 292 17917992750533638275
12236239 1 17704353269470677693
12251169 10 18343028804588752641
12403814 3 18186798110718750005
12491281 212 18201447977465827562
12553582 1 18411419531174003764
12670546 56 17275100622276696489
128620 24 17967536778614129502
13140716 1 18123748913767403416
13221675 6 18411133658065963703
13224815 77 18186801374503381132
13296908 3 18261390005653821815
13583140 156 16661187248319482268
14178342 30 18129085891864264250
14223421 5 18262233301018136956
14289901 80 18408319977798441842
14787075 74 17896329192905822105
14790565 3 18122636212633320972
15196674 1 18411699893664111311
15219456 202 18336262357974905519
15238133 3 16414927318227733227
15309172 13 18343584023390356463
15375462 189 18411422808201960473
15536298 74 18273214192575222166
16945 1 18341326768630575645
17844478 74 18186525380052756829
1813 80 17386298661494804853
18186145 218 18272653433086874326
200 152 17988349456255556231
20645477 70 18339632348340108607
21267235 1 18340216214737009150
22854114 111 18202559588327797074
23184049 59 18342464720526705199
2334 1 17762330714312192588
23402539 116 18187352251836502932
23419403 2 14502483036929296993
23463225 33 18411699876758490262
23493267 7 17750230305628550401
23557571 272 17023181596136397565
23559900 14 18264479590853258422
2748010 2 18194113019327536357
296302 2 18342460369392525068
3286 77 16557881473690962543
3323516 105 18408610253369006718
335352 9 18051129198725594732
34934 24 18410845573224294397
474 4 18263648518728451820
5104073 3 18343301474434653507
633830 44 17967812730236523838
77492 1 17489584550076843975

> <PUBCHEM_SHAPE_MULTIPOLES>
411.59
7.38
2.05
1.3
0.1
0.11
0.41
-0.02
0.95
-1.1
-0.37
0.46
-0.07
0.19

> <PUBCHEM_SHAPE_SELFOVERLAP>
893.185

> <PUBCHEM_SHAPE_VOLUME>
222.7

> <PUBCHEM_COORDINATE_TYPE>
2
5
10

$$$$
