11462087
  -OEChem-02172602533D

 37 40  0     0  0  0  0  0  0999 V2000
   -2.1498   -1.9112   -2.0218 Cl  0  0  0  0  0  0  0  0  0  0  0  0
   -6.4523    0.3591    0.2702 Cl  0  0  0  0  0  0  0  0  0  0  0  0
    3.9105   -0.0120    0.0643 N   0  0  0  0  0  0  0  0  0  0  0  0
   -0.5999   -0.4201    0.1383 N   0  0  0  0  0  0  0  0  0  0  0  0
    2.5846    2.0658   -0.1624 N   0  0  0  0  0  0  0  0  0  0  0  0
    0.1220    1.9076   -0.1345 N   0  0  0  0  0  0  0  0  0  0  0  0
    1.5577   -0.0184    0.0506 C   0  0  0  0  0  0  0  0  0  0  0  0
    1.4017   -1.3935    0.2197 C   0  0  0  0  0  0  0  0  0  0  0  0
    2.7295    0.7186   -0.0328 C   0  0  0  0  0  0  0  0  0  0  0  0
    0.3272    0.5873    0.0044 C   0  0  0  0  0  0  0  0  0  0  0  0
    3.8547   -1.4861   -0.1694 C   0  0  0  0  0  0  0  0  0  0  0  0
    2.5720   -2.2036    0.3145 C   0  0  0  0  0  0  0  0  0  0  0  0
    0.0502   -1.6385    0.2834 C   0  0  0  0  0  0  0  0  0  0  0  0
   -1.9853   -0.2541    0.1460 C   0  0  0  0  0  0  0  0  0  0  0  0
    5.1641    0.6876   -0.1399 C   0  0  0  0  0  0  0  0  0  0  0  0
    1.3135    2.5616   -0.2096 C   0  0  0  0  0  0  0  0  0  0  0  0
    2.5979   -3.4599    0.7821 C   0  0  0  0  0  0  0  0  0  0  0  0
   -2.8020   -0.8851   -0.7924 C   0  0  0  0  0  0  0  0  0  0  0  0
   -2.5500    0.5661    1.1227 C   0  0  0  0  0  0  0  0  0  0  0  0
    1.2165    4.0446   -0.3626 C   0  0  0  0  0  0  0  0  0  0  0  0
   -4.1834   -0.6958   -0.7541 C   0  0  0  0  0  0  0  0  0  0  0  0
   -3.9314    0.7554    1.1609 C   0  0  0  0  0  0  0  0  0  0  0  0
   -4.7481    0.1246    0.2224 C   0  0  0  0  0  0  0  0  0  0  0  0
    4.7284   -1.9442    0.3109 H   0  0  0  0  0  0  0  0  0  0  0  0
    3.9513   -1.6594   -1.2498 H   0  0  0  0  0  0  0  0  0  0  0  0
   -0.5046   -2.5560    0.4343 H   0  0  0  0  0  0  0  0  0  0  0  0
    6.0139    0.0445    0.1127 H   0  0  0  0  0  0  0  0  0  0  0  0
    5.2304    1.5761    0.4977 H   0  0  0  0  0  0  0  0  0  0  0  0
    5.2703    0.9940   -1.1860 H   0  0  0  0  0  0  0  0  0  0  0  0
    3.5268   -4.0190    0.8292 H   0  0  0  0  0  0  0  0  0  0  0  0
    1.7005   -3.9621    1.1283 H   0  0  0  0  0  0  0  0  0  0  0  0
   -1.9337    1.0610    1.8698 H   0  0  0  0  0  0  0  0  0  0  0  0
    1.2486    4.5192    0.6225 H   0  0  0  0  0  0  0  0  0  0  0  0
    2.0466    4.4272   -0.9647 H   0  0  0  0  0  0  0  0  0  0  0  0
    0.2817    4.3262   -0.8574 H   0  0  0  0  0  0  0  0  0  0  0  0
   -4.8225   -1.1869   -1.4850 H   0  0  0  0  0  0  0  0  0  0  0  0
   -4.3578    1.3959    1.9287 H   0  0  0  0  0  0  0  0  0  0  0  0
  1 18  1  0  0  0  0
  2 23  1  0  0  0  0
  3  9  1  0  0  0  0
  3 11  1  0  0  0  0
  3 15  1  0  0  0  0
  4 10  1  0  0  0  0
  4 13  1  0  0  0  0
  4 14  1  0  0  0  0
  5  9  2  0  0  0  0
  5 16  1  0  0  0  0
  6 10  1  0  0  0  0
  6 16  2  0  0  0  0
  7  8  1  0  0  0  0
  7  9  1  0  0  0  0
  7 10  2  0  0  0  0
  8 12  1  0  0  0  0
  8 13  2  0  0  0  0
 11 12  1  0  0  0  0
 11 24  1  0  0  0  0
 11 25  1  0  0  0  0
 12 17  2  0  0  0  0
 13 26  1  0  0  0  0
 14 18  2  0  0  0  0
 14 19  1  0  0  0  0
 15 27  1  0  0  0  0
 15 28  1  0  0  0  0
 15 29  1  0  0  0  0
 16 20  1  0  0  0  0
 17 30  1  0  0  0  0
 17 31  1  0  0  0  0
 18 21  1  0  0  0  0
 19 22  2  0  0  0  0
 19 32  1  0  0  0  0
 20 33  1  0  0  0  0
 20 34  1  0  0  0  0
 20 35  1  0  0  0  0
 21 23  2  0  0  0  0
 21 36  1  0  0  0  0
 22 23  1  0  0  0  0
 22 37  1  0  0  0  0
M  END
> <PUBCHEM_COMPOUND_CID>
11462087

> <PUBCHEM_CONFORMER_RMSD>
0.6

> <PUBCHEM_CONFORMER_DIVERSEORDER>
1
3
4
2

> <PUBCHEM_MMFF94_PARTIAL_CHARGES>
28
1 -0.18
10 0.11
11 0.51
12 -0.09
13 -0.3
14 -0.02
15 0.37
16 0.48
17 -0.3
18 0.18
19 -0.15
2 -0.18
20 0.14
21 -0.15
22 -0.15
23 0.18
26 0.15
3 -0.84
30 0.15
31 0.15
32 0.15
36 0.15
37 0.15
4 0.33
5 -0.62
6 -0.57
8 -0.05
9 0.41

> <PUBCHEM_EFFECTIVE_ROTOR_COUNT>
1.4

> <PUBCHEM_PHARMACOPHORE_FEATURES>
7
1 4 cation
3 3 5 9 cation
3 5 6 16 cation
5 4 7 8 10 13 rings
6 14 18 19 21 22 23 rings
6 3 7 8 9 11 12 rings
6 5 6 7 9 10 16 rings

> <PUBCHEM_HEAVY_ATOM_COUNT>
23

> <PUBCHEM_ATOM_DEF_STEREO_COUNT>
0

> <PUBCHEM_ATOM_UDEF_STEREO_COUNT>
0

> <PUBCHEM_BOND_DEF_STEREO_COUNT>
0

> <PUBCHEM_BOND_UDEF_STEREO_COUNT>
0

> <PUBCHEM_ISOTOPIC_ATOM_COUNT>
0

> <PUBCHEM_COMPONENT_COUNT>
1

> <PUBCHEM_CACTVS_TAUTO_COUNT>
1

> <PUBCHEM_CONFORMER_ID>
00AEE5C700000001

> <PUBCHEM_MMFF94_ENERGY>
89.3593

> <PUBCHEM_FEATURE_SELFOVERLAP>
35.894

> <PUBCHEM_SHAPE_FINGERPRINT>
10411042 1 18120373151462605082
10688039 33 17822573806844074404
10906281 52 18265342883975693764
10967382 1 18408887339189717322
1100329 8 18265897033176726032
11471102 20 18407761434692540738
11578080 2 17771590556544653649
12107183 9 17692537715328021955
12236239 1 18131070420511280627
12553582 1 18265888077869895982
12741549 16 17313097531998053693
13004483 165 18195235629315667427
13009979 54 17916312645063577651
13134695 92 18334857182162119533
13140716 1 18192430990313142848
13583140 156 18334021614156347339
13965767 371 17482866396703566873
14178342 30 18125983091536118490
14294032 229 16988287457533783241
14790565 3 18264219152690225836
15081414 286 18410860945213193356
1601671 61 18410573989778935708
16945 1 18335136518609055018
17818456 19 17774448157558791465
1813 80 18197788691105311822
18335252 114 18264475197692851109
18681886 176 17703504492900028106
18785283 64 17897457300378817285
20511986 3 17988347252352186185
20739085 24 18267596718627716946
21033648 29 17458333157520608613
21033650 10 15409521877382513513
21041028 32 18119241766707958258
21267235 1 18339368452875835314
21421861 104 18043527218787389138
21478907 32 18120372047507582770
21641784 216 17823438010752641924
221357 26 18261665983726878949
22289505 5 18261384503880051613
2255824 54 18338236080352641596
23558518 356 17907291405539730926
23559900 14 18409165549980727427
23598291 2 18272922839047481351
2748010 2 18120927305522808028
335352 9 18409731785541886572
34797466 226 16271931553569842440
34934 24 18412543210661778062
350125 39 17829904470009671290
352729 6 16968852854165877916
474 4 18265613358580933681
5104073 3 18340206396916226075
6443956 14 18408324388983556292
70251023 43 18048038471857232946
7832392 63 18342173414048074735
8272917 22 18410014329501554831
84936 182 17912924177696910945
9981440 41 17261581293305322744

> <PUBCHEM_SHAPE_MULTIPOLES>
457.14
10.11
3.32
1.03
9.5
1.55
0.27
-0.37
-0.73
-3.74
0.24
0.89
-0.43
-1.43

> <PUBCHEM_SHAPE_SELFOVERLAP>
1003.461

> <PUBCHEM_SHAPE_VOLUME>
248.5

> <PUBCHEM_COORDINATE_TYPE>
2
5
10

$$$$
