10091879
  -OEChem-02172602533D

 42 45  0     0  0  0  0  0  0999 V2000
   -1.7194    3.6244   -2.3784 Cl  0  0  0  0  0  0  0  0  0  0  0  0
   -4.8873    0.0421    2.6089 O   0  0  0  0  0  0  0  0  0  0  0  0
   -6.0242    0.4192    0.6771 O   0  0  0  0  0  0  0  0  0  0  0  0
    3.4468    1.8992    1.6559 N   0  0  0  0  0  0  0  0  0  0  0  0
    4.3947    1.1797    2.2806 N   0  0  0  0  0  0  0  0  0  0  0  0
    1.3589   -1.1693   -0.2264 N   0  0  0  0  0  0  0  0  0  0  0  0
   -0.4654   -2.2012   -1.2805 N   0  0  0  0  0  0  0  0  0  0  0  0
    1.6165   -3.2802   -1.3598 N   0  0  0  0  0  0  0  0  0  0  0  0
    2.6890    1.1738    0.7839 C   0  0  0  0  0  0  0  0  0  0  0  0
    3.1753   -0.1097    0.8424 C   0  0  0  0  0  0  0  0  0  0  0  0
    1.6209    1.7682    0.0180 C   0  0  0  0  0  0  0  0  0  0  0  0
    2.6721   -1.2155    0.0842 C   0  0  0  0  0  0  0  0  0  0  0  0
    4.2240   -0.0465    1.7794 C   0  0  0  0  0  0  0  0  0  0  0  0
    0.3261    1.8010    0.5356 C   0  0  0  0  0  0  0  0  0  0  0  0
    1.8829    2.3095   -1.2407 C   0  0  0  0  0  0  0  0  0  0  0  0
    3.5091   -2.2492   -0.2883 C   0  0  0  0  0  0  0  0  0  0  0  0
    0.9042   -2.2178   -0.9387 C   0  0  0  0  0  0  0  0  0  0  0  0
   -1.5981   -1.6531   -0.6497 C   0  0  0  0  0  0  0  0  0  0  0  0
   -0.7068    2.3752   -0.2054 C   0  0  0  0  0  0  0  0  0  0  0  0
    0.8499    2.8837   -1.9816 C   0  0  0  0  0  0  0  0  0  0  0  0
    2.9211   -3.2636   -1.0158 C   0  0  0  0  0  0  0  0  0  0  0  0
   -0.4449    2.9166   -1.4640 C   0  0  0  0  0  0  0  0  0  0  0  0
   -2.6845   -1.2205   -1.4129 C   0  0  0  0  0  0  0  0  0  0  0  0
   -1.6381   -1.5388    0.7413 C   0  0  0  0  0  0  0  0  0  0  0  0
   -3.8439   -0.5629    0.6020 C   0  0  0  0  0  0  0  0  0  0  0  0
   -3.8062   -0.6759   -0.7876 C   0  0  0  0  0  0  0  0  0  0  0  0
   -2.7598   -0.9943    1.3665 C   0  0  0  0  0  0  0  0  0  0  0  0
   -5.0129    0.0060    1.2540 C   0  0  0  0  0  0  0  0  0  0  0  0
    3.3743    2.8852    1.8750 H   0  0  0  0  0  0  0  0  0  0  0  0
    4.8738   -0.8381    2.1256 H   0  0  0  0  0  0  0  0  0  0  0  0
    0.1051    1.3830    1.5148 H   0  0  0  0  0  0  0  0  0  0  0  0
    2.8866    2.2909   -1.6587 H   0  0  0  0  0  0  0  0  0  0  0  0
    4.5635   -2.2828   -0.0432 H   0  0  0  0  0  0  0  0  0  0  0  0
   -0.6855   -2.8045   -2.0673 H   0  0  0  0  0  0  0  0  0  0  0  0
   -1.7112    2.3923    0.2100 H   0  0  0  0  0  0  0  0  0  0  0  0
    1.0686    3.3012   -2.9611 H   0  0  0  0  0  0  0  0  0  0  0  0
    3.5003   -4.1163   -1.3538 H   0  0  0  0  0  0  0  0  0  0  0  0
   -2.6658   -1.3019   -2.4969 H   0  0  0  0  0  0  0  0  0  0  0  0
   -0.8112   -1.8783    1.3595 H   0  0  0  0  0  0  0  0  0  0  0  0
   -4.6398   -0.3446   -1.4012 H   0  0  0  0  0  0  0  0  0  0  0  0
   -2.7479   -0.9264    2.4507 H   0  0  0  0  0  0  0  0  0  0  0  0
   -5.6807    0.4269    3.0388 H   0  0  0  0  0  0  0  0  0  0  0  0
  1 22  1  0  0  0  0
  2 28  1  0  0  0  0
  2 42  1  0  0  0  0
  3 28  2  0  0  0  0
  4  5  1  0  0  0  0
  4  9  1  0  0  0  0
  4 29  1  0  0  0  0
  5 13  2  0  0  0  0
  6 12  2  0  0  0  0
  6 17  1  0  0  0  0
  7 17  1  0  0  0  0
  7 18  1  0  0  0  0
  7 34  1  0  0  0  0
  8 17  2  0  0  0  0
  8 21  1  0  0  0  0
  9 10  2  0  0  0  0
  9 11  1  0  0  0  0
 10 12  1  0  0  0  0
 10 13  1  0  0  0  0
 11 14  2  0  0  0  0
 11 15  1  0  0  0  0
 12 16  1  0  0  0  0
 13 30  1  0  0  0  0
 14 19  1  0  0  0  0
 14 31  1  0  0  0  0
 15 20  2  0  0  0  0
 15 32  1  0  0  0  0
 16 21  2  0  0  0  0
 16 33  1  0  0  0  0
 18 23  2  0  0  0  0
 18 24  1  0  0  0  0
 19 22  2  0  0  0  0
 19 35  1  0  0  0  0
 20 22  1  0  0  0  0
 20 36  1  0  0  0  0
 21 37  1  0  0  0  0
 23 26  1  0  0  0  0
 23 38  1  0  0  0  0
 24 27  2  0  0  0  0
 24 39  1  0  0  0  0
 25 26  2  0  0  0  0
 25 27  1  0  0  0  0
 25 28  1  0  0  0  0
 26 40  1  0  0  0  0
 27 41  1  0  0  0  0
M  END
> <PUBCHEM_COMPOUND_CID>
10091879

> <PUBCHEM_CONFORMER_RMSD>
0.8

> <PUBCHEM_CONFORMER_DIVERSEORDER>
1
33
3
24
31
16
27
40
30
17
49
2
4
18
15
46
35
44
50
41
28
20
45
22
29
12
21
6
36
7
10
47
14
43
37
25
48
34
19
38
8
26
39
42
5
9
23
11
13
32

> <PUBCHEM_MMFF94_PARTIAL_CHARGES>
42
1 -0.18
10 -0.05
11 0.05
12 0.36
13 0.14
14 -0.15
15 -0.15
16 -0.15
17 0.72
18 0.1
19 -0.15
2 -0.65
20 -0.15
21 0.16
22 0.18
23 -0.15
24 -0.15
25 0.09
26 -0.15
27 -0.15
28 0.63
29 0.27
3 -0.57
30 0.15
31 0.15
32 0.15
33 0.15
34 0.4
35 0.15
36 0.15
37 0.15
38 0.15
39 0.15
4 0.3
40 0.15
41 0.15
42 0.5
5 -0.71
6 -0.62
7 -0.6
8 -0.62
9 -0.2

> <PUBCHEM_EFFECTIVE_ROTOR_COUNT>
5

> <PUBCHEM_PHARMACOPHORE_FEATURES>
12
1 2 acceptor
1 3 acceptor
1 4 donor
1 5 acceptor
1 6 acceptor
1 7 donor
3 2 3 28 anion
4 6 7 8 17 cation
5 4 5 9 10 13 rings
6 11 14 15 19 20 22 rings
6 18 23 24 25 26 27 rings
6 6 8 12 16 17 21 rings

> <PUBCHEM_HEAVY_ATOM_COUNT>
28

> <PUBCHEM_ATOM_DEF_STEREO_COUNT>
0

> <PUBCHEM_ATOM_UDEF_STEREO_COUNT>
0

> <PUBCHEM_BOND_DEF_STEREO_COUNT>
0

> <PUBCHEM_BOND_UDEF_STEREO_COUNT>
0

> <PUBCHEM_ISOTOPIC_ATOM_COUNT>
0

> <PUBCHEM_COMPONENT_COUNT>
1

> <PUBCHEM_CACTVS_TAUTO_COUNT>
13

> <PUBCHEM_CONFORMER_ID>
0099FD6700000001

> <PUBCHEM_MMFF94_ENERGY>
85.4925

> <PUBCHEM_FEATURE_SELFOVERLAP>
60.954

> <PUBCHEM_SHAPE_FINGERPRINT>
10119406 146 15390360288371666094
10369192 42 15360520114540420652
10382601 240 18411971482206849234
10688039 33 18115318747806187735
11244481 83 16879357928754604727
11640471 11 17560809878411595859
12156800 1 16836054466569745308
12422481 6 18338786836646107208
12553582 1 18261110824153152972
12633257 1 17895472656347569091
13075007 39 18115890623176404171
13402501 40 18122059802135589677
13965767 371 18270944848052443186
14790565 3 18124315175642295816
14840074 17 18190174779768939564
15420108 30 17834391598670128728
15840311 113 17845665729677829625
1601671 61 18337115678288833028
17357779 13 18267016172161681254
17980427 26 16414041219762730122
1813 80 18113904853178258945
19311894 1 17399816272216679892
1979834 28 18340777013164587691
20691752 17 18409726283404502206
20739085 24 18263084464921066636
21304253 335 17988092101751921729
22182313 1 18266728096178867612
23419403 2 18126844893660999077
3052486 1 17677892323124625780
3187 122 18041555841451525997
3472631 163 16487260997564525139
350125 39 18272084986166053914
474 4 18272651268286746291
508706 21 17897444996094171141
513202 73 18044071507403490386
513532 50 17274558571465326197
5283268 108 18260553294405981565
6992083 37 17762876051221859366
7064713 232 18059000826023335792
7237137 82 17765458465045073302

> <PUBCHEM_SHAPE_MULTIPOLES>
541.45
8.94
4.3
2.17
7.98
1.92
-0.45
-2.25
-6.27
-1.87
3.42
0.16
0.67
1.92

> <PUBCHEM_SHAPE_SELFOVERLAP>
1196.05

> <PUBCHEM_SHAPE_VOLUME>
289.6

> <PUBCHEM_COORDINATE_TYPE>
2
5
10

$$$$
