65390
  -OEChem-02172602573D

 54 57  0     1  0  0  0  0  0999 V2000
   -1.3499   -0.8750   -0.1234 C   0  0  1  0  0  0  0  0  0  0  0  0
   -0.6636    0.4793   -0.5202 C   0  0  2  0  0  0  0  0  0  0  0  0
    0.8062    0.7067    0.0548 C   0  0  1  0  0  0  0  0  0  0  0  0
    1.6424   -0.5901   -0.2648 C   0  0  2  0  0  0  0  0  0  0  0  0
   -1.9868   -0.7962    1.2731 C   0  0  0  0  0  0  0  0  0  0  0  0
   -3.1799    0.1179    1.0095 C   0  0  2  0  0  0  0  0  0  0  0  0
   -2.6113   -1.0972   -1.0223 C   0  0  0  0  0  0  0  0  0  0  0  0
   -0.3969   -2.0666   -0.2662 C   0  0  0  0  0  0  0  0  0  0  0  0
   -3.8093   -0.5675   -0.2132 C   0  0  2  0  0  0  0  0  0  0  0  0
   -1.6375    1.6766   -0.3492 C   0  0  0  0  0  0  0  0  0  0  0  0
    0.9806   -1.8389    0.3474 C   0  0  0  0  0  0  0  0  0  0  0  0
    3.1942   -0.4991   -0.0442 C   0  0  0  0  0  0  0  0  0  0  0  0
   -2.6727    1.5446    0.7751 C   0  0  0  0  0  0  0  0  0  0  0  0
    1.4730    1.8960   -0.7034 C   0  0  0  0  0  0  0  0  0  0  0  0
    0.7727    1.0686    1.5562 C   0  0  0  0  0  0  0  0  0  0  0  0
    3.7359    0.7610   -0.7634 C   0  0  0  0  0  0  0  0  0  0  0  0
    2.9737    2.0400   -0.4483 C   0  0  0  0  0  0  0  0  0  0  0  0
   -4.7923    0.2620   -1.0237 C   0  0  0  0  0  0  0  0  0  0  0  0
    3.6264   -0.5060    1.4331 C   0  0  0  0  0  0  0  0  0  0  0  0
    3.8952   -1.7161   -0.7068 C   0  0  0  0  0  0  0  0  0  0  0  0
   -0.5036    0.4089   -1.6089 H   0  0  0  0  0  0  0  0  0  0  0  0
    1.5450   -0.7225   -1.3561 H   0  0  0  0  0  0  0  0  0  0  0  0
   -1.3367   -0.4107    2.0563 H   0  0  0  0  0  0  0  0  0  0  0  0
   -2.3335   -1.7838    1.6057 H   0  0  0  0  0  0  0  0  0  0  0  0
   -3.8753    0.1142    1.8562 H   0  0  0  0  0  0  0  0  0  0  0  0
   -2.7691   -2.1645   -1.2242 H   0  0  0  0  0  0  0  0  0  0  0  0
   -2.5136   -0.6072   -1.9975 H   0  0  0  0  0  0  0  0  0  0  0  0
   -0.2631   -2.2930   -1.3329 H   0  0  0  0  0  0  0  0  0  0  0  0
   -0.8408   -2.9670    0.1773 H   0  0  0  0  0  0  0  0  0  0  0  0
   -4.3646   -1.4430    0.1544 H   0  0  0  0  0  0  0  0  0  0  0  0
   -2.1854    1.7859   -1.2940 H   0  0  0  0  0  0  0  0  0  0  0  0
   -1.1096    2.6272   -0.2337 H   0  0  0  0  0  0  0  0  0  0  0  0
    0.9030   -1.7672    1.4360 H   0  0  0  0  0  0  0  0  0  0  0  0
    1.5744   -2.7349    0.1440 H   0  0  0  0  0  0  0  0  0  0  0  0
   -2.2308    1.9094    1.7101 H   0  0  0  0  0  0  0  0  0  0  0  0
   -3.5147    2.2162    0.5693 H   0  0  0  0  0  0  0  0  0  0  0  0
    0.9960    2.8449   -0.4341 H   0  0  0  0  0  0  0  0  0  0  0  0
    1.3224    1.7715   -1.7839 H   0  0  0  0  0  0  0  0  0  0  0  0
    0.6376    0.2019    2.2037 H   0  0  0  0  0  0  0  0  0  0  0  0
    1.6843    1.5620    1.8946 H   0  0  0  0  0  0  0  0  0  0  0  0
   -0.0207    1.7844    1.7816 H   0  0  0  0  0  0  0  0  0  0  0  0
    3.6903    0.6041   -1.8502 H   0  0  0  0  0  0  0  0  0  0  0  0
    4.7969    0.9086   -0.5242 H   0  0  0  0  0  0  0  0  0  0  0  0
    3.3620    2.8485   -1.0799 H   0  0  0  0  0  0  0  0  0  0  0  0
    3.1682    2.3512    0.5826 H   0  0  0  0  0  0  0  0  0  0  0  0
   -4.3185    1.1157   -1.5143 H   0  0  0  0  0  0  0  0  0  0  0  0
   -5.2491   -0.3515   -1.8077 H   0  0  0  0  0  0  0  0  0  0  0  0
   -5.5955    0.6406   -0.3833 H   0  0  0  0  0  0  0  0  0  0  0  0
    3.1901   -1.3493    1.9777 H   0  0  0  0  0  0  0  0  0  0  0  0
    4.7162   -0.6011    1.5160 H   0  0  0  0  0  0  0  0  0  0  0  0
    3.3667    0.4098    1.9623 H   0  0  0  0  0  0  0  0  0  0  0  0
    3.5671   -1.8508   -1.7435 H   0  0  0  0  0  0  0  0  0  0  0  0
    4.9835   -1.5812   -0.7230 H   0  0  0  0  0  0  0  0  0  0  0  0
    3.7004   -2.6477   -0.1662 H   0  0  0  0  0  0  0  0  0  0  0  0
  1  2  1  0  0  0  0
  1  5  1  0  0  0  0
  1  7  1  0  0  0  0
  1  8  1  0  0  0  0
  2  3  1  0  0  0  0
  2 10  1  0  0  0  0
  2 21  1  0  0  0  0
  3  4  1  0  0  0  0
  3 14  1  0  0  0  0
  3 15  1  0  0  0  0
  4 11  1  0  0  0  0
  4 12  1  0  0  0  0
  4 22  1  0  0  0  0
  5  6  1  0  0  0  0
  5 23  1  0  0  0  0
  5 24  1  0  0  0  0
  6  9  1  0  0  0  0
  6 13  1  0  0  0  0
  6 25  1  0  0  0  0
  7  9  1  0  0  0  0
  7 26  1  0  0  0  0
  7 27  1  0  0  0  0
  8 11  1  0  0  0  0
  8 28  1  0  0  0  0
  8 29  1  0  0  0  0
  9 18  1  0  0  0  0
  9 30  1  0  0  0  0
 10 13  1  0  0  0  0
 10 31  1  0  0  0  0
 10 32  1  0  0  0  0
 11 33  1  0  0  0  0
 11 34  1  0  0  0  0
 12 16  1  0  0  0  0
 12 19  1  0  0  0  0
 12 20  1  0  0  0  0
 13 35  1  0  0  0  0
 13 36  1  0  0  0  0
 14 17  1  0  0  0  0
 14 37  1  0  0  0  0
 14 38  1  0  0  0  0
 15 39  1  0  0  0  0
 15 40  1  0  0  0  0
 15 41  1  0  0  0  0
 16 17  1  0  0  0  0
 16 42  1  0  0  0  0
 16 43  1  0  0  0  0
 17 44  1  0  0  0  0
 17 45  1  0  0  0  0
 18 46  1  0  0  0  0
 18 47  1  0  0  0  0
 18 48  1  0  0  0  0
 19 49  1  0  0  0  0
 19 50  1  0  0  0  0
 19 51  1  0  0  0  0
 20 52  1  0  0  0  0
 20 53  1  0  0  0  0
 20 54  1  0  0  0  0
M  END
> <PUBCHEM_COMPOUND_CID>
65390

> <PUBCHEM_CONFORMER_RMSD>
0.6

> <PUBCHEM_CONFORMER_DIVERSEORDER>
1
2

> <PUBCHEM_MMFF94_PARTIAL_CHARGES>
0

> <PUBCHEM_EFFECTIVE_ROTOR_COUNT>
2.2

> <PUBCHEM_PHARMACOPHORE_FEATURES>
4
3 12 19 20 hydrophobe
6 1 2 3 4 8 11 rings
6 3 4 12 14 16 17 rings
8 1 2 5 6 7 9 10 13 rings

> <PUBCHEM_HEAVY_ATOM_COUNT>
20

> <PUBCHEM_ATOM_DEF_STEREO_COUNT>
6

> <PUBCHEM_ATOM_UDEF_STEREO_COUNT>
0

> <PUBCHEM_BOND_DEF_STEREO_COUNT>
0

> <PUBCHEM_BOND_UDEF_STEREO_COUNT>
0

> <PUBCHEM_ISOTOPIC_ATOM_COUNT>
0

> <PUBCHEM_COMPONENT_COUNT>
1

> <PUBCHEM_CACTVS_TAUTO_COUNT>
1

> <PUBCHEM_CONFORMER_ID>
0000FF6E00000001

> <PUBCHEM_MMFF94_ENERGY>
90.4288

> <PUBCHEM_FEATURE_SELFOVERLAP>
20.327

> <PUBCHEM_SHAPE_FINGERPRINT>
10062212 137 18273214162478964867
10863032 1 18263088862729837195
10967382 1 18409452526504647244
11132069 177 18343860009040082130
11471102 20 18408041814426191342
11578080 2 17915716752537461960
12011746 2 18334576798154756863
12236239 1 17988926665648235751
12553582 1 18187652345100900408
12592029 89 18260261924183499211
13140716 1 18264767838439572154
13221675 6 18335424564542999530
13224815 77 18410577322341059649
13581323 91 17846778507325328661
13583140 156 17240484744743455577
14144814 61 18410017658253982056
14250199 8 18410015467646620477
15196674 1 18410015433318426581
15238133 3 14418397880731446381
15309172 13 18409454699673871795
15442244 35 18339930311949326252
15536298 74 18342742922838465796
15775835 57 18201446908193108945
15848702 151 17988088776809424998
16752209 62 18342459201182571432
16945 1 18334581217549542602
17349148 13 18341322336340383719
17492 89 18339926025240584614
18186145 218 17676213472137936010
192875 21 18412536613581345065
19422 9 18272940413879173582
19862831 5 17530677710643916365
200 152 18201431476713198741
20645477 70 18335136505365619646
21267235 1 18339653268973001558
21501502 16 18412830204550027892
2334 1 17977385263067541902
23402539 116 18341038696568124959
23419403 2 15825708064918458159
23463225 33 18407762521292853868
23493267 7 17531242885669920145
23557571 272 16845576400295505666
23559900 14 18272370914733764996
2748010 2 17907017626943759690
296302 2 17167864175135322039
3286 77 17632286887323150145
335352 9 18265901241611706221
34934 24 18189331436985618700
350125 39 18411985724123191017
474 4 17387701737164080868
5104073 3 18408045125825053617
633830 44 18260270732823598607
69090 78 17917705807826521031
7364860 26 18341615966623194188
74978 22 18336548338409382134
90525 40 18342464724531450973
9709674 26 18409174341351871310
9981440 41 17619901103769683424

> <PUBCHEM_SHAPE_MULTIPOLES>
411.59
7.57
2.11
1.23
1.1
0.13
-0.34
-0.26
1.11
-0.92
0.24
0.07
0.06
-0.33

> <PUBCHEM_SHAPE_SELFOVERLAP>
870.692

> <PUBCHEM_SHAPE_VOLUME>
227.3

> <PUBCHEM_COORDINATE_TYPE>
2
5
10

$$$$
