101297602
  -OEChem-02172602533D

 51 53  0     1  0  0  0  0  0999 V2000
   -3.5230    1.7447   -0.4356 O   0  0  0  0  0  0  0  0  0  0  0  0
    3.0803   -0.4236    0.3223 O   0  0  0  0  0  0  0  0  0  0  0  0
    2.0432   -2.9835   -0.3492 O   0  0  0  0  0  0  0  0  0  0  0  0
   -5.5955    1.3740   -1.3762 O   0  0  0  0  0  0  0  0  0  0  0  0
    3.6181    0.8640   -1.5090 O   0  0  0  0  0  0  0  0  0  0  0  0
   -0.6185    0.3774    0.0004 C   0  0  1  0  0  0  0  0  0  0  0  0
   -1.1011   -1.0125    0.5201 C   0  0  1  0  0  0  0  0  0  0  0  0
   -1.3854    1.4963    0.7525 C   0  0  0  0  0  0  0  0  0  0  0  0
   -2.6231   -1.1698    0.3485 C   0  0  0  0  0  0  0  0  0  0  0  0
   -3.4072   -0.0635    1.0675 C   0  0  1  0  0  0  0  0  0  0  0  0
   -2.9042    1.3437    0.7978 C   0  0  2  0  0  0  0  0  0  0  0  0
    0.8936    0.5371    0.3209 C   0  0  0  0  0  0  0  0  0  0  0  0
   -0.2412   -2.1329   -0.0680 C   0  0  0  0  0  0  0  0  0  0  0  0
    1.7609   -0.6160   -0.1928 C   0  0  2  0  0  0  0  0  0  0  0  0
   -0.8199    0.5424   -1.5250 C   0  0  0  0  0  0  0  0  0  0  0  0
    1.2346   -1.9805    0.2658 C   0  0  2  0  0  0  0  0  0  0  0  0
   -4.7741    0.0730    0.4905 C   0  0  0  0  0  0  0  0  0  0  0  0
   -4.7361    1.1229   -0.5516 C   0  0  0  0  0  0  0  0  0  0  0  0
   -0.7232   -3.1448   -0.8102 C   0  0  0  0  0  0  0  0  0  0  0  0
   -5.8907   -0.5756    0.8256 C   0  0  0  0  0  0  0  0  0  0  0  0
    3.9084    0.3415   -0.4423 C   0  0  0  0  0  0  0  0  0  0  0  0
    5.2443    0.4455    0.2197 C   0  0  0  0  0  0  0  0  0  0  0  0
    5.9955   -0.8199    0.5095 C   0  0  0  0  0  0  0  0  0  0  0  0
    5.6501    1.6904    0.5310 C   0  0  0  0  0  0  0  0  0  0  0  0
    4.9141    2.9697    0.2879 C   0  0  0  0  0  0  0  0  0  0  0  0
   -0.9202   -1.0445    1.6064 H   0  0  0  0  0  0  0  0  0  0  0  0
   -1.1291    2.4712    0.3183 H   0  0  0  0  0  0  0  0  0  0  0  0
   -1.0352    1.5145    1.7937 H   0  0  0  0  0  0  0  0  0  0  0  0
   -2.9442   -2.1365    0.7603 H   0  0  0  0  0  0  0  0  0  0  0  0
   -2.8833   -1.1995   -0.7175 H   0  0  0  0  0  0  0  0  0  0  0  0
   -3.4190   -0.2594    2.1459 H   0  0  0  0  0  0  0  0  0  0  0  0
   -3.2819    2.0373    1.5632 H   0  0  0  0  0  0  0  0  0  0  0  0
    1.0356    0.6144    1.4086 H   0  0  0  0  0  0  0  0  0  0  0  0
    1.2666    1.4892   -0.0793 H   0  0  0  0  0  0  0  0  0  0  0  0
    1.7919   -0.6108   -1.2901 H   0  0  0  0  0  0  0  0  0  0  0  0
   -0.4579    1.5218   -1.8589 H   0  0  0  0  0  0  0  0  0  0  0  0
   -1.8688    0.4694   -1.8213 H   0  0  0  0  0  0  0  0  0  0  0  0
   -0.2798   -0.2150   -2.1010 H   0  0  0  0  0  0  0  0  0  0  0  0
    1.3742   -2.0961    1.3472 H   0  0  0  0  0  0  0  0  0  0  0  0
   -0.0796   -3.9212   -1.2090 H   0  0  0  0  0  0  0  0  0  0  0  0
   -1.7759   -3.2397   -1.0487 H   0  0  0  0  0  0  0  0  0  0  0  0
    2.0319   -2.8387   -1.3108 H   0  0  0  0  0  0  0  0  0  0  0  0
   -5.8788   -1.3294    1.6056 H   0  0  0  0  0  0  0  0  0  0  0  0
   -6.8370   -0.3740    0.3356 H   0  0  0  0  0  0  0  0  0  0  0  0
    5.4414   -1.4453    1.2164 H   0  0  0  0  0  0  0  0  0  0  0  0
    6.1486   -1.3887   -0.4132 H   0  0  0  0  0  0  0  0  0  0  0  0
    6.9794   -0.6131    0.9431 H   0  0  0  0  0  0  0  0  0  0  0  0
    6.6196    1.8034    1.0128 H   0  0  0  0  0  0  0  0  0  0  0  0
    5.3716    3.5112   -0.5455 H   0  0  0  0  0  0  0  0  0  0  0  0
    4.9878    3.6008    1.1802 H   0  0  0  0  0  0  0  0  0  0  0  0
    3.8488    2.8411    0.0831 H   0  0  0  0  0  0  0  0  0  0  0  0
  1 11  1  0  0  0  0
  1 18  1  0  0  0  0
  2 14  1  0  0  0  0
  2 21  1  0  0  0  0
  3 16  1  0  0  0  0
  3 42  1  0  0  0  0
  4 18  2  0  0  0  0
  5 21  2  0  0  0  0
  6  7  1  0  0  0  0
  6  8  1  0  0  0  0
  6 12  1  0  0  0  0
  6 15  1  0  0  0  0
  7  9  1  0  0  0  0
  7 13  1  0  0  0  0
  7 26  1  0  0  0  0
  8 11  1  0  0  0  0
  8 27  1  0  0  0  0
  8 28  1  0  0  0  0
  9 10  1  0  0  0  0
  9 29  1  0  0  0  0
  9 30  1  0  0  0  0
 10 11  1  0  0  0  0
 10 17  1  0  0  0  0
 10 31  1  0  0  0  0
 11 32  1  0  0  0  0
 12 14  1  0  0  0  0
 12 33  1  0  0  0  0
 12 34  1  0  0  0  0
 13 16  1  0  0  0  0
 13 19  2  0  0  0  0
 14 16  1  0  0  0  0
 14 35  1  0  0  0  0
 15 36  1  0  0  0  0
 15 37  1  0  0  0  0
 15 38  1  0  0  0  0
 16 39  1  0  0  0  0
 17 18  1  0  0  0  0
 17 20  2  0  0  0  0
 19 40  1  0  0  0  0
 19 41  1  0  0  0  0
 20 43  1  0  0  0  0
 20 44  1  0  0  0  0
 21 22  1  0  0  0  0
 22 23  1  0  0  0  0
 22 24  2  0  0  0  0
 23 45  1  0  0  0  0
 23 46  1  0  0  0  0
 23 47  1  0  0  0  0
 24 25  1  0  0  0  0
 24 48  1  0  0  0  0
 25 49  1  0  0  0  0
 25 50  1  0  0  0  0
 25 51  1  0  0  0  0
M  END
> <PUBCHEM_COMPOUND_CID>
101297602

> <PUBCHEM_CONFORMER_RMSD>
0.8

> <PUBCHEM_CONFORMER_DIVERSEORDER>
1
30
8
20
26
4
6
27
11
5
25
18
21
24
12
19
17
3
23
9
10
32
29
31
28
22
2
15
33
7
13
14
16

> <PUBCHEM_MMFF94_PARTIAL_CHARGES>
26
1 -0.43
10 0.14
11 0.28
13 -0.28
14 0.28
16 0.42
17 -0.12
18 0.71
19 -0.3
2 -0.43
20 -0.3
21 0.71
22 -0.12
23 0.14
24 -0.29
25 0.14
3 -0.68
4 -0.57
40 0.15
41 0.15
42 0.4
43 0.15
44 0.15
48 0.15
5 -0.57
7 0.14

> <PUBCHEM_EFFECTIVE_ROTOR_COUNT>
4.2

> <PUBCHEM_PHARMACOPHORE_FEATURES>
9
1 23 hydrophobe
1 25 hydrophobe
1 3 acceptor
1 3 donor
1 4 acceptor
1 5 acceptor
5 1 10 11 17 18 rings
6 6 7 12 13 14 16 rings
6 6 7 8 9 10 11 rings

> <PUBCHEM_HEAVY_ATOM_COUNT>
25

> <PUBCHEM_ATOM_DEF_STEREO_COUNT>
6

> <PUBCHEM_ATOM_UDEF_STEREO_COUNT>
0

> <PUBCHEM_BOND_DEF_STEREO_COUNT>
1

> <PUBCHEM_BOND_UDEF_STEREO_COUNT>
0

> <PUBCHEM_ISOTOPIC_ATOM_COUNT>
0

> <PUBCHEM_COMPONENT_COUNT>
1

> <PUBCHEM_CACTVS_TAUTO_COUNT>
1

> <PUBCHEM_CONFORMER_ID>
0609ADC200000001

> <PUBCHEM_MMFF94_ENERGY>
68.9847

> <PUBCHEM_FEATURE_SELFOVERLAP>
45.866

> <PUBCHEM_SHAPE_FINGERPRINT>
10 15 18188206606879281880
10411042 1 17403737143308345462
10835480 77 18335696080155695957
11578080 2 16300056906331663695
12236239 1 17894631456974533104
12403259 118 17749111131419070916
12422481 6 17530964678778330348
12969540 114 18342727529512276693
13140716 1 18195532725120173226
13914758 101 14923932454374852487
14787075 74 18059856190172074833
14790565 3 18342182180187680616
15131766 46 15504648466611703326
15196674 1 18338240345582363707
15238133 3 14418704593484516887
17980427 23 17676496046937628509
19489759 90 16950284001201007801
20197701 30 18335420170691300474
20511986 3 18114729503904555691
21236236 1 18271241750040270015
21315764 268 18335135414845314044
21521721 280 18201165446259601849
21859007 373 17968924289749264628
22079108 93 18343300400940423856
22149856 69 18267893652104460227
22182313 1 18267049222151827551
22224240 67 18341057384867778187
22950370 63 9151170961060850144
23227448 37 18199470037852537508
23402539 116 18343577464706081910
23559900 14 18049720720283840083
23569917 315 18411704266063437022
2838139 119 18410004416658870533
335352 9 18412263922772779326
34797466 226 17917722321864952333
350125 39 18197219354904357659
4340502 62 18413395323498837566
4371632 12 15120392276850059032
474229 33 18412546505022916051
5104073 3 18190189992531929819
53917941 68 18269262611882691111
59755656 215 18337958879454355958
59755656 520 18413385454139005254
633830 44 17773610316639223221
9981440 41 18187090537851899875

> <PUBCHEM_SHAPE_MULTIPOLES>
485.14
13.42
2.75
1.07
5.51
1.2
0.26
-6.92
-1.23
1.47
0.29
-0.56
-0.19
0.59

> <PUBCHEM_SHAPE_SELFOVERLAP>
1026.199

> <PUBCHEM_SHAPE_VOLUME>
270.4

> <PUBCHEM_COORDINATE_TYPE>
2
5
10

$$$$
