10091370
  -OEChem-02172602513D

 44 47  0     0  0  0  0  0  0999 V2000
   -4.7406    0.8364   -0.1032 S   0  0  0  0  0  0  0  0  0  0  0  0
    6.6004    1.3733    1.3586 O   0  0  0  0  0  0  0  0  0  0  0  0
    7.9338   -0.4155   -0.4671 O   0  0  0  0  0  0  0  0  0  0  0  0
   -7.4373    2.1129   -0.4035 O   0  0  0  0  0  0  0  0  0  0  0  0
   -9.8392    1.0200   -0.1684 O   0  0  0  0  0  0  0  0  0  0  0  0
    1.6352   -0.5315    0.0646 N   0  0  0  0  0  0  0  0  0  0  0  0
   -1.9123    0.2377   -0.6006 N   0  0  0  0  0  0  0  0  0  0  0  0
   -8.6848    0.2463    0.0246 N   0  0  0  0  0  0  0  0  0  0  0  0
    3.8249    0.1855   -0.6795 C   0  0  0  0  0  0  0  0  0  0  0  0
    2.3515    0.3940   -0.7857 C   0  0  0  0  0  0  0  0  0  0  0  0
    5.9363    0.6773    0.3824 C   0  0  0  0  0  0  0  0  0  0  0  0
    6.5809   -0.1979   -0.4952 C   0  0  0  0  0  0  0  0  0  0  0  0
    4.5599    0.8809    0.2808 C   0  0  0  0  0  0  0  0  0  0  0  0
    4.4646   -0.7092   -1.5380 C   0  0  0  0  0  0  0  0  0  0  0  0
    7.9059    0.8410    1.5988 C   0  0  0  0  0  0  0  0  0  0  0  0
    8.6201    0.5888    0.2851 C   0  0  0  0  0  0  0  0  0  0  0  0
    5.8430   -0.9031   -1.4462 C   0  0  0  0  0  0  0  0  0  0  0  0
    0.2544   -0.5954    0.1354 C   0  0  0  0  0  0  0  0  0  0  0  0
   -2.4925   -0.6622    0.2248 C   0  0  0  0  0  0  0  0  0  0  0  0
   -0.3995   -1.5082    0.9735 C   0  0  0  0  0  0  0  0  0  0  0  0
   -0.5605    0.2471   -0.6233 C   0  0  0  0  0  0  0  0  0  0  0  0
   -1.7886   -1.5482    1.0243 C   0  0  0  0  0  0  0  0  0  0  0  0
   -3.9314   -0.6404    0.2196 C   0  0  0  0  0  0  0  0  0  0  0  0
   -4.8205   -1.6722    0.4447 C   0  0  0  0  0  0  0  0  0  0  0  0
   -6.2769    0.0973    0.0579 C   0  0  0  0  0  0  0  0  0  0  0  0
   -6.1765   -1.2449    0.3510 C   0  0  0  0  0  0  0  0  0  0  0  0
   -7.4505    0.8901   -0.1155 C   0  0  0  0  0  0  0  0  0  0  0  0
    2.1102    1.4292   -0.5114 H   0  0  0  0  0  0  0  0  0  0  0  0
    2.0476    0.2673   -1.8329 H   0  0  0  0  0  0  0  0  0  0  0  0
    4.0636    1.5712    0.9587 H   0  0  0  0  0  0  0  0  0  0  0  0
    3.9000   -1.2605   -2.2856 H   0  0  0  0  0  0  0  0  0  0  0  0
    7.8062   -0.0791    2.1877 H   0  0  0  0  0  0  0  0  0  0  0  0
    8.4583    1.5718    2.1975 H   0  0  0  0  0  0  0  0  0  0  0  0
    8.6826    1.5001   -0.3224 H   0  0  0  0  0  0  0  0  0  0  0  0
    9.6377    0.2300    0.4685 H   0  0  0  0  0  0  0  0  0  0  0  0
    6.3345   -1.5956   -2.1242 H   0  0  0  0  0  0  0  0  0  0  0  0
    2.1628   -1.1703    0.6502 H   0  0  0  0  0  0  0  0  0  0  0  0
    0.1752   -2.1925    1.5931 H   0  0  0  0  0  0  0  0  0  0  0  0
   -0.1513    0.9896   -1.3013 H   0  0  0  0  0  0  0  0  0  0  0  0
   -2.2800   -2.2559    1.6838 H   0  0  0  0  0  0  0  0  0  0  0  0
   -4.5261   -2.6915    0.6618 H   0  0  0  0  0  0  0  0  0  0  0  0
   -7.0192   -1.9087    0.4951 H   0  0  0  0  0  0  0  0  0  0  0  0
   -8.8320   -0.7471    0.1599 H   0  0  0  0  0  0  0  0  0  0  0  0
  -10.0269    1.2785    0.7498 H   0  0  0  0  0  0  0  0  0  0  0  0
  1 23  1  0  0  0  0
  1 25  1  0  0  0  0
  2 11  1  0  0  0  0
  2 15  1  0  0  0  0
  3 12  1  0  0  0  0
  3 16  1  0  0  0  0
  4 27  2  0  0  0  0
  5  8  1  0  0  0  0
  5 44  1  0  0  0  0
  6 10  1  0  0  0  0
  6 18  1  0  0  0  0
  6 37  1  0  0  0  0
  7 19  2  0  0  0  0
  7 21  1  0  0  0  0
  8 27  1  0  0  0  0
  8 43  1  0  0  0  0
  9 10  1  0  0  0  0
  9 13  2  0  0  0  0
  9 14  1  0  0  0  0
 10 28  1  0  0  0  0
 10 29  1  0  0  0  0
 11 12  2  0  0  0  0
 11 13  1  0  0  0  0
 12 17  1  0  0  0  0
 13 30  1  0  0  0  0
 14 17  2  0  0  0  0
 14 31  1  0  0  0  0
 15 16  1  0  0  0  0
 15 32  1  0  0  0  0
 15 33  1  0  0  0  0
 16 34  1  0  0  0  0
 16 35  1  0  0  0  0
 17 36  1  0  0  0  0
 18 20  1  0  0  0  0
 18 21  2  0  0  0  0
 19 22  1  0  0  0  0
 19 23  1  0  0  0  0
 20 22  2  0  0  0  0
 20 38  1  0  0  0  0
 21 39  1  0  0  0  0
 22 40  1  0  0  0  0
 23 24  2  0  0  0  0
 24 26  1  0  0  0  0
 24 41  1  0  0  0  0
 25 26  2  0  0  0  0
 25 27  1  0  0  0  0
 26 42  1  0  0  0  0
M  END
> <PUBCHEM_COMPOUND_CID>
10091370

> <PUBCHEM_CONFORMER_RMSD>
0.8

> <PUBCHEM_CONFORMER_DIVERSEORDER>
1
299
23
156
265
142
314
210
14
288
212
322
188
289
34
58
183
252
7
227
300
176
311
131
319
22
85
151
167
318
46
28
236
161
291
92
317
8
234
259
267
116
232
118
11
177
307
238
70
4
243
190
31
217
324
148
205
245
95
308
102
93
323
256
29
271
112
200
56
173
293
79
215
286
191
312
197
35
19
310
264
192
218
27
43
178
158
52
282
220
240
99
301
81
284
187
196
285
302
226
214
223
47
25
258
206
257
100
119
69
169
306
203
3
272
30
283
109
316
195
278
97
304
122
157
295
182
219
143
287
298
126
260
13
76
222
159
241
296
15
253
87
303
175
270
38
184
96
26
275
139
213
228
320
160
44
263
121
114
189
224
82
60
98
123
248
63
48
53
77
64
10
229
309
179
247
208
32
321
193
281
305
40
231
276
239
74
37
251
164
266
73
209
181
91
72
140
165
297
150
216
5
250
20
277
186
36
313
211
274
136
68
154
6
41
2
261
50
162
111
249
280
155
273
128
207
33
18
129
221
90
104
294
235
71
9
110
225
180
146
106
171
292
163
269
127
199
134
233
21
315
57
67
42
84
12
78
279
94
115
149
88
132
244
75
107
166
105
254
204
201
24
89
51
133
83
168
135
117
16
124
80
290
152
237
153
61
101
138
55
137
147
198
17
59
194
86
185
39
144
45
125
108
145
268
130
120
62
174
170
66
103
49
262
65
202
246
230
54
141
113
172
255
242

> <PUBCHEM_MMFF94_PARTIAL_CHARGES>
38
1 -0.08
10 0.51
11 0.08
12 0.08
13 -0.15
14 -0.15
15 0.28
16 0.28
17 -0.15
18 0.1
19 0.36
2 -0.36
20 -0.15
21 0.16
22 -0.15
23 -0.01
24 -0.15
25 -0.05
26 -0.15
27 0.71
3 -0.36
30 0.15
31 0.15
36 0.15
37 0.4
38 0.15
39 0.15
4 -0.57
40 0.15
41 0.15
42 0.15
43 0.37
44 0.4
5 -0.44
6 -0.87
7 -0.62
8 -0.39
9 -0.14

> <PUBCHEM_EFFECTIVE_ROTOR_COUNT>
6.8

> <PUBCHEM_PHARMACOPHORE_FEATURES>
11
1 2 acceptor
1 3 acceptor
1 4 acceptor
1 6 cation
1 6 donor
1 7 acceptor
1 8 donor
5 1 23 24 25 26 rings
6 2 3 11 12 15 16 rings
6 7 18 19 20 21 22 rings
6 9 11 12 13 14 17 rings

> <PUBCHEM_HEAVY_ATOM_COUNT>
27

> <PUBCHEM_ATOM_DEF_STEREO_COUNT>
0

> <PUBCHEM_ATOM_UDEF_STEREO_COUNT>
0

> <PUBCHEM_BOND_DEF_STEREO_COUNT>
0

> <PUBCHEM_BOND_UDEF_STEREO_COUNT>
0

> <PUBCHEM_ISOTOPIC_ATOM_COUNT>
0

> <PUBCHEM_COMPONENT_COUNT>
1

> <PUBCHEM_CACTVS_TAUTO_COUNT>
4

> <PUBCHEM_CONFORMER_ID>
0099FB6A00000001

> <PUBCHEM_MMFF94_ENERGY>
81.8525

> <PUBCHEM_FEATURE_SELFOVERLAP>
55.864

> <PUBCHEM_SHAPE_FINGERPRINT>
10076449 9 13830130586392654619
10162869 55 16128648661499615596
10299344 5 15574713608051033874
10835480 77 17775287183403743554
10951579 204 18118983402903341524
11135609 127 17988356096376041032
11135926 11 17603577539701518643
11315181 36 16272210804344350223
11409948 35 18337391519123818654
12082328 90 16773802464148624577
12089408 11 17168145662759752606
12236239 1 16008748039693430390
125118 31 18410295839328958444
12838862 33 18113888357063216309
14118638 360 16701751466737280538
14251764 18 16660361494018439262
14251764 46 18334858320238762566
14294032 229 17532375266329687029
14344974 52 18130783487295684029
14429380 56 16487251097839240928
15183329 4 18187089446708159546
15419008 47 18343016692365312248
15510794 2 18201722864232322743
155225 1 18334575712715187765
15979999 66 15267337427540790131
16120349 18 16845287263714486568
17093844 174 18411984680910141115
19301679 30 15792277199955609392
20157964 124 17275390906943442310
20554085 129 18412816993668813938
21150785 3 15051733092569248049
21267235 1 13262392259500269894
21781055 127 17822304427180421702
246663 6 7997971284217387945
24893992 56 17894634790539093961
249057 3 17060336348975795821
306946 40 17988349434491186784
3178227 256 14057000529685832296
335352 9 18040720290139741735
3633792 109 17489315148311568814
4093350 32 18336544924116792778
4339292 15 17774434019339479759
44280117 145 18129378362764459039
44389302 135 17385990769092317738
4874694 18 18060416919432829742
5283156 175 16081084875314363180
5385378 56 17676483908891038706
5758199 1 17894631440195720659
5937810 71 17774164488592901321
5969126 39 15338841928706940531
59755656 520 15791733044267801723
636775 72 18341332215525528089
67123 10 17346878958031479989

> <PUBCHEM_SHAPE_MULTIPOLES>
521.08
30.83
1.44
1.12
8.94
0.04
0.02
-11.06
2.03
1.89
0.21
-2.23
0.07
2.05

> <PUBCHEM_SHAPE_SELFOVERLAP>
1129.732

> <PUBCHEM_SHAPE_VOLUME>
286.8

> <PUBCHEM_COORDINATE_TYPE>
2
5
10

$$$$
