51340744
  -OEChem-02172602273D

 20 21  0     1  0  0  0  0  0999 V2000
   -0.6242    1.6991    0.9039 O   0  0  0  0  0  0  0  0  0  0  0  0
    2.2869    0.9620   -0.4998 O   0  0  0  0  0  0  0  0  0  0  0  0
   -1.3859    0.9540   -0.0583 C   0  0  1  0  0  0  0  0  0  0  0  0
   -0.0025    1.4390   -0.3655 C   0  0  2  0  0  0  0  0  0  0  0  0
   -1.5971   -0.4919    0.2826 C   0  0  2  0  0  0  0  0  0  0  0  0
    1.1616    0.5372   -0.2675 C   0  0  0  0  0  0  0  0  0  0  0  0
   -0.3333   -1.3130    0.3762 C   0  0  0  0  0  0  0  0  0  0  0  0
    0.9140   -0.8803    0.1287 C   0  0  0  0  0  0  0  0  0  0  0  0
   -2.5347   -1.1379   -0.7427 C   0  0  0  0  0  0  0  0  0  0  0  0
    2.1153   -1.7683    0.2424 C   0  0  0  0  0  0  0  0  0  0  0  0
   -2.2434    1.4538   -0.4863 H   0  0  0  0  0  0  0  0  0  0  0  0
    0.0876    2.2698   -1.0558 H   0  0  0  0  0  0  0  0  0  0  0  0
   -2.0919   -0.5344    1.2613 H   0  0  0  0  0  0  0  0  0  0  0  0
   -0.4712   -2.3499    0.6787 H   0  0  0  0  0  0  0  0  0  0  0  0
   -2.7370   -2.1857   -0.4945 H   0  0  0  0  0  0  0  0  0  0  0  0
   -2.1070   -1.1029   -1.7516 H   0  0  0  0  0  0  0  0  0  0  0  0
   -3.4960   -0.6128   -0.7750 H   0  0  0  0  0  0  0  0  0  0  0  0
    2.8122   -1.3751    0.9899 H   0  0  0  0  0  0  0  0  0  0  0  0
    1.8470   -2.7867    0.5428 H   0  0  0  0  0  0  0  0  0  0  0  0
    2.6352   -1.8325   -0.7191 H   0  0  0  0  0  0  0  0  0  0  0  0
  1  3  1  0  0  0  0
  1  4  1  0  0  0  0
  2  6  2  0  0  0  0
  3  4  1  0  0  0  0
  3  5  1  0  0  0  0
  3 11  1  0  0  0  0
  4  6  1  0  0  0  0
  4 12  1  0  0  0  0
  5  7  1  0  0  0  0
  5  9  1  0  0  0  0
  5 13  1  0  0  0  0
  6  8  1  0  0  0  0
  7  8  2  0  0  0  0
  7 14  1  0  0  0  0
  8 10  1  0  0  0  0
  9 15  1  0  0  0  0
  9 16  1  0  0  0  0
  9 17  1  0  0  0  0
 10 18  1  0  0  0  0
 10 19  1  0  0  0  0
 10 20  1  0  0  0  0
M  END
> <PUBCHEM_COMPOUND_CID>
51340744

> <PUBCHEM_CONFORMER_RMSD>
0.4

> <PUBCHEM_CONFORMER_DIVERSEORDER>
1

> <PUBCHEM_MMFF94_PARTIAL_CHARGES>
12
1 -0.3
10 0.14
11 0.1
12 0.1
14 0.15
2 -0.57
3 -0.05
4 0.05
5 0.23
6 0.56
7 -0.29
8 -0.12

> <PUBCHEM_EFFECTIVE_ROTOR_COUNT>
0.4

> <PUBCHEM_PHARMACOPHORE_FEATURES>
3
1 1 acceptor
1 2 acceptor
7 1 3 4 5 6 7 8 rings

> <PUBCHEM_HEAVY_ATOM_COUNT>
10

> <PUBCHEM_ATOM_DEF_STEREO_COUNT>
3

> <PUBCHEM_ATOM_UDEF_STEREO_COUNT>
0

> <PUBCHEM_BOND_DEF_STEREO_COUNT>
0

> <PUBCHEM_BOND_UDEF_STEREO_COUNT>
0

> <PUBCHEM_ISOTOPIC_ATOM_COUNT>
0

> <PUBCHEM_COMPONENT_COUNT>
1

> <PUBCHEM_CACTVS_TAUTO_COUNT>
5

> <PUBCHEM_CONFORMER_ID>
030F65C800000001

> <PUBCHEM_MMFF94_ENERGY>
13.4316

> <PUBCHEM_FEATURE_SELFOVERLAP>
15.223

> <PUBCHEM_SHAPE_FINGERPRINT>
12423570 1 15953865143266335505
13024252 1 15578120822533826594
14128692 85 18339359669514487398
16945 1 18190745421427948189
18185500 45 18410012109066551811
21040471 1 17830172763720999470
23552423 10 18261395511807351862
241688 4 18190458259940944064
2748010 2 18336265652183172951
5084963 1 18267017250303882810

> <PUBCHEM_SHAPE_MULTIPOLES>
194.06
2.9
1.99
0.79
0.09
0.08
0.01
-1.01
-0.49
0.24
0.1
-0.15
0.06
-0.45

> <PUBCHEM_SHAPE_SELFOVERLAP>
402.731

> <PUBCHEM_SHAPE_VOLUME>
111.5

> <PUBCHEM_COORDINATE_TYPE>
2
5
10

$$$$
