92767
  -OEChem-02172602313D

 31 32  0     1  0  0  0  0  0999 V2000
    3.4536   -1.3079    0.2205 O   0  0  0  0  0  0  0  0  0  0  0  0
   -0.9317    0.8488    0.2149 N   0  0  1  0  0  0  0  0  0  0  0  0
   -0.1732   -0.3272   -0.2760 C   0  0  1  0  0  0  0  0  0  0  0  0
    1.3048   -0.2642    0.2068 C   0  0  2  0  0  0  0  0  0  0  0  0
   -0.8480   -1.6299    0.2062 C   0  0  0  0  0  0  0  0  0  0  0  0
    1.9546    1.0667   -0.1971 C   0  0  0  0  0  0  0  0  0  0  0  0
   -0.3225    2.1137   -0.2219 C   0  0  0  0  0  0  0  0  0  0  0  0
   -2.3392    0.8122   -0.2125 C   0  0  0  0  0  0  0  0  0  0  0  0
    1.1123    2.2409    0.2755 C   0  0  0  0  0  0  0  0  0  0  0  0
   -2.3221   -1.6930   -0.1770 C   0  0  0  0  0  0  0  0  0  0  0  0
   -3.0456   -0.4418    0.2921 C   0  0  0  0  0  0  0  0  0  0  0  0
    2.1568   -1.4184   -0.3316 C   0  0  0  0  0  0  0  0  0  0  0  0
   -0.1808   -0.3252   -1.3760 H   0  0  0  0  0  0  0  0  0  0  0  0
    1.3216   -0.3142    1.3055 H   0  0  0  0  0  0  0  0  0  0  0  0
   -0.7537   -1.7177    1.2964 H   0  0  0  0  0  0  0  0  0  0  0  0
   -0.3572   -2.5056   -0.2302 H   0  0  0  0  0  0  0  0  0  0  0  0
    2.0662    1.1150   -1.2880 H   0  0  0  0  0  0  0  0  0  0  0  0
    2.9592    1.1595    0.2313 H   0  0  0  0  0  0  0  0  0  0  0  0
   -0.8942    2.9594    0.1798 H   0  0  0  0  0  0  0  0  0  0  0  0
   -0.3431    2.1986   -1.3165 H   0  0  0  0  0  0  0  0  0  0  0  0
   -2.4147    0.8629   -1.3068 H   0  0  0  0  0  0  0  0  0  0  0  0
   -2.8716    1.6827    0.1900 H   0  0  0  0  0  0  0  0  0  0  0  0
    1.1235    2.2872    1.3718 H   0  0  0  0  0  0  0  0  0  0  0  0
    1.5481    3.1784   -0.0882 H   0  0  0  0  0  0  0  0  0  0  0  0
   -2.7862   -2.5829    0.2624 H   0  0  0  0  0  0  0  0  0  0  0  0
   -2.4143   -1.7860   -1.2660 H   0  0  0  0  0  0  0  0  0  0  0  0
   -4.0805   -0.4552   -0.0679 H   0  0  0  0  0  0  0  0  0  0  0  0
   -3.0878   -0.4281    1.3886 H   0  0  0  0  0  0  0  0  0  0  0  0
    2.2285   -1.3866   -1.4239 H   0  0  0  0  0  0  0  0  0  0  0  0
    1.7607   -2.3911   -0.0318 H   0  0  0  0  0  0  0  0  0  0  0  0
    3.9822   -2.0415   -0.1370 H   0  0  0  0  0  0  0  0  0  0  0  0
  1 12  1  0  0  0  0
  1 31  1  0  0  0  0
  2  3  1  0  0  0  0
  2  7  1  0  0  0  0
  2  8  1  0  0  0  0
  3  4  1  0  0  0  0
  3  5  1  0  0  0  0
  3 13  1  0  0  0  0
  4  6  1  0  0  0  0
  4 12  1  0  0  0  0
  4 14  1  0  0  0  0
  5 10  1  0  0  0  0
  5 15  1  0  0  0  0
  5 16  1  0  0  0  0
  6  9  1  0  0  0  0
  6 17  1  0  0  0  0
  6 18  1  0  0  0  0
  7  9  1  0  0  0  0
  7 19  1  0  0  0  0
  7 20  1  0  0  0  0
  8 11  1  0  0  0  0
  8 21  1  0  0  0  0
  8 22  1  0  0  0  0
  9 23  1  0  0  0  0
  9 24  1  0  0  0  0
 10 11  1  0  0  0  0
 10 25  1  0  0  0  0
 10 26  1  0  0  0  0
 11 27  1  0  0  0  0
 11 28  1  0  0  0  0
 12 29  1  0  0  0  0
 12 30  1  0  0  0  0
M  END
> <PUBCHEM_COMPOUND_CID>
92767

> <PUBCHEM_CONFORMER_RMSD>
0.6

> <PUBCHEM_CONFORMER_DIVERSEORDER>
1
2
4
3

> <PUBCHEM_MMFF94_PARTIAL_CHARGES>
7
1 -0.68
12 0.28
2 -0.81
3 0.27
31 0.4
7 0.27
8 0.27

> <PUBCHEM_EFFECTIVE_ROTOR_COUNT>
2.6

> <PUBCHEM_PHARMACOPHORE_FEATURES>
5
1 1 acceptor
1 1 donor
1 2 cation
6 2 3 4 6 7 9 rings
6 2 3 5 8 10 11 rings

> <PUBCHEM_HEAVY_ATOM_COUNT>
12

> <PUBCHEM_ATOM_DEF_STEREO_COUNT>
2

> <PUBCHEM_ATOM_UDEF_STEREO_COUNT>
0

> <PUBCHEM_BOND_DEF_STEREO_COUNT>
0

> <PUBCHEM_BOND_UDEF_STEREO_COUNT>
0

> <PUBCHEM_ISOTOPIC_ATOM_COUNT>
0

> <PUBCHEM_COMPONENT_COUNT>
1

> <PUBCHEM_CACTVS_TAUTO_COUNT>
1

> <PUBCHEM_CONFORMER_ID>
00016A5F00000001

> <PUBCHEM_MMFF94_ENERGY>
7.6619

> <PUBCHEM_FEATURE_SELFOVERLAP>
25.391

> <PUBCHEM_SHAPE_FINGERPRINT>
1 1 17835239326102453172
10130415 120 18335702719425601043
10967382 1 18050287260576277775
12524768 44 18337106894753612967
13380535 21 18192163804465590441
13380535 76 17976533137207950059
14128692 85 18409735049411128108
161256 15 18337109076417794285
16945 1 18049442835809669617
17990270 104 18337951323751820043
19021347 11 18050567649000057180
193761 8 18338797952005482005
19973954 147 18338799034606200987
20201158 50 18265329697560658875
20645477 70 18194111044386917735
20871998 184 18128813045524187726
20871998 22 18270972245358732086
21040471 1 16970269020483586612
21130352 189 18410570678089936815
21501502 16 18339927129188636327
2334 1 18338517555076066695
23402539 116 18126550241735238807
23463225 33 18410294726541441062
23552423 10 18120659290546283213
23559900 14 18124872362213504670
241688 4 18409448055195889401
2748010 2 18410289233178029805
5084963 1 18201154364959069603
53812653 166 18198624539112198208
63268167 104 18338803415451880537
66348 1 18122627416212270111
7364860 26 18270682107438091144
81228 2 18123201099615992418

> <PUBCHEM_SHAPE_MULTIPOLES>
236.1
4.23
2.42
0.66
0.11
0.61
0.01
-1.75
-0.14
-0.7
0.01
0.01
0
0.06

> <PUBCHEM_SHAPE_SELFOVERLAP>
472.253

> <PUBCHEM_SHAPE_VOLUME>
138.5

> <PUBCHEM_COORDINATE_TYPE>
2
5
10

$$$$
