6857535
  -OEChem-02172602243D

 78 81  0     1  0  0  0  0  0999 V2000
   -0.2843   -1.1343    0.0614 C   0  0  1  0  0  0  0  0  0  0  0  0
    0.3872   -0.1416    1.0353 C   0  0  2  0  0  0  0  0  0  0  0  0
    1.9163   -0.2473    1.0359 C   0  0  1  0  0  0  0  0  0  0  0  0
    2.4359    0.0503   -0.4085 C   0  0  1  0  0  0  0  0  0  0  0  0
    4.0077    0.0137   -0.4859 C   0  0  2  0  0  0  0  0  0  0  0  0
   -1.7678   -0.8017    0.3545 C   0  0  2  0  0  0  0  0  0  0  0  0
    0.1846   -0.7888   -1.3591 C   0  0  0  0  0  0  0  0  0  0  0  0
    1.7197   -0.8196   -1.4752 C   0  0  0  0  0  0  0  0  0  0  0  0
    4.5498    1.0341    0.5665 C   0  0  1  0  0  0  0  0  0  0  0  0
   -0.3719   -0.3516    2.3420 C   0  0  0  0  0  0  0  0  0  0  0  0
    2.5451    0.7066    2.0617 C   0  0  0  0  0  0  0  0  0  0  0  0
   -1.8132   -0.6566    1.8939 C   0  0  0  0  0  0  0  0  0  0  0  0
    4.0704    0.7197    1.9880 C   0  0  0  0  0  0  0  0  0  0  0  0
    4.4985    0.4772   -1.8870 C   0  0  0  0  0  0  0  0  0  0  0  0
    0.0230   -2.6227    0.3628 C   0  0  0  0  0  0  0  0  0  0  0  0
   -2.8044   -1.7803   -0.1787 C   0  0  1  0  0  0  0  0  0  0  0  0
    6.0753    1.1962    0.5130 C   0  0  0  0  0  0  0  0  0  0  0  0
    4.5376   -1.4210   -0.2324 C   0  0  0  0  0  0  0  0  0  0  0  0
    6.0136    0.6853   -1.9696 C   0  0  0  0  0  0  0  0  0  0  0  0
    6.5327    1.6167   -0.8810 C   0  0  0  0  0  0  0  0  0  0  0  0
   -4.2224   -1.3297    0.2337 C   0  0  0  0  0  0  0  0  0  0  0  0
   -2.6653   -1.9173   -1.6986 C   0  0  0  0  0  0  0  0  0  0  0  0
   -4.5780    0.0859   -0.2369 C   0  0  0  0  0  0  0  0  0  0  0  0
   -6.0041    0.5369    0.1609 C   0  0  1  0  0  0  0  0  0  0  0  0
   -6.3031    2.0265   -0.1746 C   0  0  0  0  0  0  0  0  0  0  0  0
   -7.0173   -0.4413   -0.4511 C   0  0  0  0  0  0  0  0  0  0  0  0
   -5.3097    2.9774    0.5040 C   0  0  0  0  0  0  0  0  0  0  0  0
   -6.3560    2.3271   -1.6749 C   0  0  0  0  0  0  0  0  0  0  0  0
    0.1458    0.8838    0.7075 H   0  0  0  0  0  0  0  0  0  0  0  0
    2.1993   -1.2633    1.3284 H   0  0  0  0  0  0  0  0  0  0  0  0
    2.1397    1.0870   -0.6358 H   0  0  0  0  0  0  0  0  0  0  0  0
   -1.9463    0.1914   -0.0788 H   0  0  0  0  0  0  0  0  0  0  0  0
   -0.1943   -1.4809   -2.1117 H   0  0  0  0  0  0  0  0  0  0  0  0
   -0.1673    0.2113   -1.6429 H   0  0  0  0  0  0  0  0  0  0  0  0
    1.9828   -0.4675   -2.4789 H   0  0  0  0  0  0  0  0  0  0  0  0
    2.0614   -1.8574   -1.4138 H   0  0  0  0  0  0  0  0  0  0  0  0
    4.1316    2.0204    0.3104 H   0  0  0  0  0  0  0  0  0  0  0  0
    0.0371   -1.1921    2.9137 H   0  0  0  0  0  0  0  0  0  0  0  0
   -0.3351    0.5346    2.9838 H   0  0  0  0  0  0  0  0  0  0  0  0
    2.2435    0.4208    3.0762 H   0  0  0  0  0  0  0  0  0  0  0  0
    2.1710    1.7255    1.8979 H   0  0  0  0  0  0  0  0  0  0  0  0
   -2.1604   -1.5712    2.3881 H   0  0  0  0  0  0  0  0  0  0  0  0
   -2.4884    0.1541    2.1888 H   0  0  0  0  0  0  0  0  0  0  0  0
    4.4482    1.4785    2.6842 H   0  0  0  0  0  0  0  0  0  0  0  0
    4.4708   -0.2410    2.3310 H   0  0  0  0  0  0  0  0  0  0  0  0
    4.2130   -0.2498   -2.6563 H   0  0  0  0  0  0  0  0  0  0  0  0
    4.0045    1.4214   -2.1520 H   0  0  0  0  0  0  0  0  0  0  0  0
   -0.4217   -3.2853   -0.3860 H   0  0  0  0  0  0  0  0  0  0  0  0
    1.0946   -2.8393    0.3613 H   0  0  0  0  0  0  0  0  0  0  0  0
   -0.3583   -2.9381    1.3392 H   0  0  0  0  0  0  0  0  0  0  0  0
   -2.6590   -2.7745    0.2618 H   0  0  0  0  0  0  0  0  0  0  0  0
    6.3922    1.9617    1.2322 H   0  0  0  0  0  0  0  0  0  0  0  0
    6.5787    0.2697    0.8101 H   0  0  0  0  0  0  0  0  0  0  0  0
    4.2321   -2.1035   -1.0324 H   0  0  0  0  0  0  0  0  0  0  0  0
    5.6296   -1.4617   -0.1943 H   0  0  0  0  0  0  0  0  0  0  0  0
    4.1794   -1.8437    0.7094 H   0  0  0  0  0  0  0  0  0  0  0  0
    6.5289   -0.2796   -1.9030 H   0  0  0  0  0  0  0  0  0  0  0  0
    6.2676    1.1001   -2.9523 H   0  0  0  0  0  0  0  0  0  0  0  0
    6.1790    2.6356   -1.0829 H   0  0  0  0  0  0  0  0  0  0  0  0
    7.6275    1.6514   -0.9155 H   0  0  0  0  0  0  0  0  0  0  0  0
   -4.3384   -1.3910    1.3221 H   0  0  0  0  0  0  0  0  0  0  0  0
   -4.9275   -2.0564   -0.1848 H   0  0  0  0  0  0  0  0  0  0  0  0
   -3.5842   -2.3391   -2.1235 H   0  0  0  0  0  0  0  0  0  0  0  0
   -1.8769   -2.6216   -1.9712 H   0  0  0  0  0  0  0  0  0  0  0  0
   -2.4971   -0.9569   -2.1953 H   0  0  0  0  0  0  0  0  0  0  0  0
   -4.4629    0.1545   -1.3241 H   0  0  0  0  0  0  0  0  0  0  0  0
   -3.8768    0.7943    0.2069 H   0  0  0  0  0  0  0  0  0  0  0  0
   -6.0886    0.4405    1.2526 H   0  0  0  0  0  0  0  0  0  0  0  0
   -7.2965    2.2534    0.2359 H   0  0  0  0  0  0  0  0  0  0  0  0
   -8.0370   -0.0597   -0.3292 H   0  0  0  0  0  0  0  0  0  0  0  0
   -6.8404   -0.5957   -1.5204 H   0  0  0  0  0  0  0  0  0  0  0  0
   -6.9883   -1.4151    0.0472 H   0  0  0  0  0  0  0  0  0  0  0  0
   -4.3200    2.9417    0.0382 H   0  0  0  0  0  0  0  0  0  0  0  0
   -5.6649    4.0114    0.4294 H   0  0  0  0  0  0  0  0  0  0  0  0
   -5.2033    2.7410    1.5677 H   0  0  0  0  0  0  0  0  0  0  0  0
   -6.6128    3.3783   -1.8463 H   0  0  0  0  0  0  0  0  0  0  0  0
   -5.3932    2.1384   -2.1599 H   0  0  0  0  0  0  0  0  0  0  0  0
   -7.1168    1.7215   -2.1766 H   0  0  0  0  0  0  0  0  0  0  0  0
  1  2  1  0  0  0  0
  1  6  1  0  0  0  0
  1  7  1  0  0  0  0
  1 15  1  0  0  0  0
  2  3  1  0  0  0  0
  2 10  1  0  0  0  0
  2 29  1  0  0  0  0
  3  4  1  0  0  0  0
  3 11  1  0  0  0  0
  3 30  1  0  0  0  0
  4  5  1  0  0  0  0
  4  8  1  0  0  0  0
  4 31  1  0  0  0  0
  5  9  1  0  0  0  0
  5 14  1  0  0  0  0
  5 18  1  0  0  0  0
  6 12  1  0  0  0  0
  6 16  1  0  0  0  0
  6 32  1  0  0  0  0
  7  8  1  0  0  0  0
  7 33  1  0  0  0  0
  7 34  1  0  0  0  0
  8 35  1  0  0  0  0
  8 36  1  0  0  0  0
  9 13  1  0  0  0  0
  9 17  1  0  0  0  0
  9 37  1  0  0  0  0
 10 12  1  0  0  0  0
 10 38  1  0  0  0  0
 10 39  1  0  0  0  0
 11 13  1  0  0  0  0
 11 40  1  0  0  0  0
 11 41  1  0  0  0  0
 12 42  1  0  0  0  0
 12 43  1  0  0  0  0
 13 44  1  0  0  0  0
 13 45  1  0  0  0  0
 14 19  1  0  0  0  0
 14 46  1  0  0  0  0
 14 47  1  0  0  0  0
 15 48  1  0  0  0  0
 15 49  1  0  0  0  0
 15 50  1  0  0  0  0
 16 21  1  0  0  0  0
 16 22  1  0  0  0  0
 16 51  1  0  0  0  0
 17 20  1  0  0  0  0
 17 52  1  0  0  0  0
 17 53  1  0  0  0  0
 18 54  1  0  0  0  0
 18 55  1  0  0  0  0
 18 56  1  0  0  0  0
 19 20  1  0  0  0  0
 19 57  1  0  0  0  0
 19 58  1  0  0  0  0
 20 59  1  0  0  0  0
 20 60  1  0  0  0  0
 21 23  1  0  0  0  0
 21 61  1  0  0  0  0
 21 62  1  0  0  0  0
 22 63  1  0  0  0  0
 22 64  1  0  0  0  0
 22 65  1  0  0  0  0
 23 24  1  0  0  0  0
 23 66  1  0  0  0  0
 23 67  1  0  0  0  0
 24 25  1  0  0  0  0
 24 26  1  0  0  0  0
 24 68  1  0  0  0  0
 25 27  1  0  0  0  0
 25 28  1  0  0  0  0
 25 69  1  0  0  0  0
 26 70  1  0  0  0  0
 26 71  1  0  0  0  0
 26 72  1  0  0  0  0
 27 73  1  0  0  0  0
 27 74  1  0  0  0  0
 27 75  1  0  0  0  0
 28 76  1  0  0  0  0
 28 77  1  0  0  0  0
 28 78  1  0  0  0  0
M  END
> <PUBCHEM_COMPOUND_CID>
6857535

> <PUBCHEM_CONFORMER_RMSD>
0.8

> <PUBCHEM_CONFORMER_DIVERSEORDER>
6
8
15
13
1
7
11
3
10
9
5
12
4
14
2

> <PUBCHEM_MMFF94_PARTIAL_CHARGES>
0

> <PUBCHEM_EFFECTIVE_ROTOR_COUNT>
7.2

> <PUBCHEM_PHARMACOPHORE_FEATURES>
8
1 22 hydrophobe
1 26 hydrophobe
3 25 27 28 hydrophobe
5 1 2 6 10 12 rings
5 16 21 23 24 25 hydrophobe
6 1 2 3 4 7 8 rings
6 3 4 5 9 11 13 rings
6 5 9 14 17 19 20 rings

> <PUBCHEM_HEAVY_ATOM_COUNT>
28

> <PUBCHEM_ATOM_DEF_STEREO_COUNT>
8

> <PUBCHEM_ATOM_UDEF_STEREO_COUNT>
1

> <PUBCHEM_BOND_DEF_STEREO_COUNT>
0

> <PUBCHEM_BOND_UDEF_STEREO_COUNT>
0

> <PUBCHEM_ISOTOPIC_ATOM_COUNT>
0

> <PUBCHEM_COMPONENT_COUNT>
1

> <PUBCHEM_CACTVS_TAUTO_COUNT>
1

> <PUBCHEM_CONFORMER_ID>
0068A33F00000006

> <PUBCHEM_MMFF94_ENERGY>
91.5537

> <PUBCHEM_FEATURE_SELFOVERLAP>
40.743

> <PUBCHEM_SHAPE_FINGERPRINT>
10 15 13334736868626880166
10554248 39 18265033753177186999
10670039 82 18412262801306682573
10674148 151 17894918434711549022
10693767 8 15410902812521226556
10763959 59 18202003269809655864
10906281 52 17023479619928080310
11963148 33 10087650264741333292
11991303 11 17059767931761161951
12011746 2 17274550914092362466
12035758 1 13334736846867388744
12236239 1 17531242893864391258
12422481 6 17096358446025152391
12596602 18 16950287333795001321
12633257 1 15647056001249358475
12838862 33 16486968528152310672
13140716 1 14563673174197764470
13540713 4 16772092873285198899
13690498 29 17488453256435526551
13782708 43 10087642584990725988
13914758 101 18411139109033739498
14068700 675 12247683768366706059
14251764 18 16660646310063221635
14251764 30 9583524200310449796
14341114 328 17312819369100016691
14347329 18 18272647897122118961
14765038 42 16226056616928186972
14849402 71 16516260663359222757
14856354 85 18189905391136421379
14931854 50 17417829343965693828
14955137 171 12612756817286582511
15183329 4 17275108314810991451
15188451 53 9799690385723823177
15238133 3 18040992968992112688
15840311 113 17313662630104522189
17349148 13 13686033028646131282
17913733 40 15430032141496202689
18222031 100 15267347314550365826
18769570 83 18187082862434098133
19958102 18 17489315152405816364
200 152 14836137571319401058
2026 5 13613147425507931868
20281389 69 18408323276797587725
20775438 99 14043730536044282149
21033648 29 18342167921154181552
21033650 10 18341614841273178299
21279426 13 17203609323702837398
21424621 283 18187366527859460515
21521239 73 15482667987530960653
21637258 2 11383834848527177827
21756936 100 17894350003836759715
21781055 127 17095529496727669580
21792961 116 17918003783930666694
21859007 373 17917135135875498824
22061861 79 16630525137580826337
22122407 14 17603881038653286165
221357 26 16559040393522382184
2215653 11 16702307870949545850
22224240 67 15357695306228379347
22393880 68 17346029073496821215
23559900 14 16702020941412108994
23569914 152 16410152010363757869
2838139 119 18335978740210804605
3004659 81 16988565727393713010
312425 54 11963656782581935629
3178227 256 14201396106343885500
3633792 109 18270689667134705982
3882209 13 16767341544033604094
3918712 181 18336538340227560725
392239 28 14923950067692816095
394071 54 16081089294614249318
4058900 60 18336552624903399315
4093350 32 17894346684222724578
4098825 35 18408887304661479470
439807 62 13398334816702863333
465052 167 8214140755233217806
5104073 3 15213585688535637504
5283173 99 18060416915590782825
59682541 52 16845291596993642397
59755656 215 17632300077093726502

> <PUBCHEM_SHAPE_MULTIPOLES>
576.23
17.87
2.3
2.02
9.59
0.58
-0.3
12.68
6.03
3.23
0.37
-1.59
0.19
0.34

> <PUBCHEM_SHAPE_SELFOVERLAP>
1183.614

> <PUBCHEM_SHAPE_VOLUME>
329.7

> <PUBCHEM_COORDINATE_TYPE>
2
5
10

$$$$
