104843
  -OEChem-02172602233D

 74 80  0     1  0  0  0  0  0999 V2000
   -2.4692    0.6446   -1.2842 O   0  0  0  0  0  0  0  0  0  0  0  0
   -2.8559    0.8654    1.0245 O   0  0  0  0  0  0  0  0  0  0  0  0
   -7.1605    0.1116    1.4618 O   0  0  0  0  0  0  0  0  0  0  0  0
   -3.4452   -2.7343   -1.1870 O   0  0  0  0  0  0  0  0  0  0  0  0
    0.5535    0.3308   -1.9352 O   0  0  0  0  0  0  0  0  0  0  0  0
   -4.0338   -0.6597   -0.2666 N   0  0  0  0  0  0  0  0  0  0  0  0
   -5.7014    1.4610    0.3045 N   0  0  0  0  0  0  0  0  0  0  0  0
   -0.9401   -1.0881   -0.8491 N   0  0  0  0  0  0  0  0  0  0  0  0
    3.3134   -2.6501   -0.2097 N   0  0  2  0  0  0  0  0  0  0  0  0
    8.1201    0.8821    0.5963 N   0  0  0  0  0  0  0  0  0  0  0  0
   -4.5610    1.6415   -0.5819 C   0  0  2  0  0  0  0  0  0  0  0  0
   -3.4555    0.6564   -0.2466 C   0  0  2  0  0  0  0  0  0  0  0  0
   -5.2607   -0.9787    0.4570 C   0  0  2  0  0  0  0  0  0  0  0  0
   -4.2556    3.1357   -0.4850 C   0  0  0  0  0  0  0  0  0  0  0  0
   -6.3486    2.7302    0.5988 C   0  0  0  0  0  0  0  0  0  0  0  0
   -5.6516    3.7344   -0.3117 C   0  0  0  0  0  0  0  0  0  0  0  0
   -2.1275   -0.7188   -1.5688 C   0  0  1  0  0  0  0  0  0  0  0  0
   -6.1340    0.2433    0.7906 C   0  0  0  0  0  0  0  0  0  0  0  0
   -3.2774   -1.5357   -1.0239 C   0  0  0  0  0  0  0  0  0  0  0  0
   -4.9411   -1.7444    1.7406 C   0  0  0  0  0  0  0  0  0  0  0  0
   -1.9546   -0.8952   -3.0659 C   0  0  0  0  0  0  0  0  0  0  0  0
   -4.1037   -2.9826    1.4310 C   0  0  0  0  0  0  0  0  0  0  0  0
   -4.2185   -0.8415    2.7372 C   0  0  0  0  0  0  0  0  0  0  0  0
    1.3676   -1.0743   -0.1860 C   0  0  1  0  0  0  0  0  0  0  0  0
    4.2754   -1.5183   -0.2997 C   0  0  1  0  0  0  0  0  0  0  0  0
    0.3070   -0.5295   -1.0940 C   0  0  0  0  0  0  0  0  0  0  0  0
    2.0406   -2.2838   -0.8484 C   0  0  0  0  0  0  0  0  0  0  0  0
    3.6627   -0.1184    0.0014 C   0  0  0  0  0  0  0  0  0  0  0  0
    2.3293    0.0475    0.0819 C   0  0  0  0  0  0  0  0  0  0  0  0
    5.6209   -1.8300    0.4499 C   0  0  0  0  0  0  0  0  0  0  0  0
    4.5975    1.0236    0.1461 C   0  0  0  0  0  0  0  0  0  0  0  0
    6.5028   -0.6339    0.4583 C   0  0  0  0  0  0  0  0  0  0  0  0
    5.9368    0.6533    0.3329 C   0  0  0  0  0  0  0  0  0  0  0  0
    3.0978   -3.1662    1.1424 C   0  0  0  0  0  0  0  0  0  0  0  0
    6.9504    1.5929    0.4347 C   0  0  0  0  0  0  0  0  0  0  0  0
    7.8585   -0.4703    0.6159 C   0  0  0  0  0  0  0  0  0  0  0  0
    4.3215    2.3959    0.0778 C   0  0  0  0  0  0  0  0  0  0  0  0
    6.6892    2.9619    0.3689 C   0  0  0  0  0  0  0  0  0  0  0  0
    5.3507    3.3418    0.1910 C   0  0  0  0  0  0  0  0  0  0  0  0
   -4.9322    1.4361   -1.5972 H   0  0  0  0  0  0  0  0  0  0  0  0
   -5.8533   -1.6238   -0.2046 H   0  0  0  0  0  0  0  0  0  0  0  0
   -3.7421    3.5163   -1.3727 H   0  0  0  0  0  0  0  0  0  0  0  0
   -3.6525    3.3845    0.3936 H   0  0  0  0  0  0  0  0  0  0  0  0
   -7.4261    2.6643    0.4225 H   0  0  0  0  0  0  0  0  0  0  0  0
   -6.1755    2.9550    1.6567 H   0  0  0  0  0  0  0  0  0  0  0  0
   -5.6351    4.7434    0.1093 H   0  0  0  0  0  0  0  0  0  0  0  0
   -6.1594    3.7760   -1.2828 H   0  0  0  0  0  0  0  0  0  0  0  0
   -5.8841   -2.0701    2.1990 H   0  0  0  0  0  0  0  0  0  0  0  0
   -2.6645    1.8099    1.1287 H   0  0  0  0  0  0  0  0  0  0  0  0
   -1.0209   -1.7944   -0.1226 H   0  0  0  0  0  0  0  0  0  0  0  0
   -2.9151   -0.7618   -3.5786 H   0  0  0  0  0  0  0  0  0  0  0  0
   -1.2796   -0.1514   -3.5001 H   0  0  0  0  0  0  0  0  0  0  0  0
   -1.5823   -1.8945   -3.3166 H   0  0  0  0  0  0  0  0  0  0  0  0
   -3.0600   -2.7627    1.1936 H   0  0  0  0  0  0  0  0  0  0  0  0
   -4.0587   -3.6033    2.3359 H   0  0  0  0  0  0  0  0  0  0  0  0
   -4.5736   -3.6118    0.6700 H   0  0  0  0  0  0  0  0  0  0  0  0
   -3.1414   -0.8012    2.5570 H   0  0  0  0  0  0  0  0  0  0  0  0
   -4.3177   -1.2818    3.7381 H   0  0  0  0  0  0  0  0  0  0  0  0
   -4.6273    0.1688    2.8135 H   0  0  0  0  0  0  0  0  0  0  0  0
    0.9187   -1.3633    0.7728 H   0  0  0  0  0  0  0  0  0  0  0  0
    4.5547   -1.4631   -1.3650 H   0  0  0  0  0  0  0  0  0  0  0  0
    2.2266   -2.0853   -1.9137 H   0  0  0  0  0  0  0  0  0  0  0  0
    1.3545   -3.1413   -0.8446 H   0  0  0  0  0  0  0  0  0  0  0  0
    1.9010    1.0130    0.3386 H   0  0  0  0  0  0  0  0  0  0  0  0
    6.1258   -2.6783   -0.0271 H   0  0  0  0  0  0  0  0  0  0  0  0
    5.4381   -2.0924    1.4982 H   0  0  0  0  0  0  0  0  0  0  0  0
    2.8544   -2.3822    1.8669 H   0  0  0  0  0  0  0  0  0  0  0  0
    3.9812   -3.7068    1.4969 H   0  0  0  0  0  0  0  0  0  0  0  0
    2.2855   -3.9026    1.1530 H   0  0  0  0  0  0  0  0  0  0  0  0
    8.6610   -1.1812    0.7536 H   0  0  0  0  0  0  0  0  0  0  0  0
    3.3080    2.7552   -0.0800 H   0  0  0  0  0  0  0  0  0  0  0  0
    9.0375    1.2934    0.6991 H   0  0  0  0  0  0  0  0  0  0  0  0
    7.4788    3.7003    0.4497 H   0  0  0  0  0  0  0  0  0  0  0  0
    5.1060    4.4000    0.1311 H   0  0  0  0  0  0  0  0  0  0  0  0
  1 12  1  0  0  0  0
  1 17  1  0  0  0  0
  2 12  1  0  0  0  0
  2 49  1  0  0  0  0
  3 18  2  0  0  0  0
  4 19  2  0  0  0  0
  5 26  2  0  0  0  0
  6 12  1  0  0  0  0
  6 13  1  0  0  0  0
  6 19  1  0  0  0  0
  7 11  1  0  0  0  0
  7 15  1  0  0  0  0
  7 18  1  0  0  0  0
  8 17  1  0  0  0  0
  8 26  1  0  0  0  0
  8 50  1  0  0  0  0
  9 25  1  0  0  0  0
  9 27  1  0  0  0  0
  9 34  1  0  0  0  0
 10 35  1  0  0  0  0
 10 36  1  0  0  0  0
 10 72  1  0  0  0  0
 11 12  1  0  0  0  0
 11 14  1  0  0  0  0
 11 40  1  0  0  0  0
 13 18  1  0  0  0  0
 13 20  1  0  0  0  0
 13 41  1  0  0  0  0
 14 16  1  0  0  0  0
 14 42  1  0  0  0  0
 14 43  1  0  0  0  0
 15 16  1  0  0  0  0
 15 44  1  0  0  0  0
 15 45  1  0  0  0  0
 16 46  1  0  0  0  0
 16 47  1  0  0  0  0
 17 19  1  0  0  0  0
 17 21  1  0  0  0  0
 20 22  1  0  0  0  0
 20 23  1  0  0  0  0
 20 48  1  0  0  0  0
 21 51  1  0  0  0  0
 21 52  1  0  0  0  0
 21 53  1  0  0  0  0
 22 54  1  0  0  0  0
 22 55  1  0  0  0  0
 22 56  1  0  0  0  0
 23 57  1  0  0  0  0
 23 58  1  0  0  0  0
 23 59  1  0  0  0  0
 24 26  1  0  0  0  0
 24 27  1  0  0  0  0
 24 29  1  0  0  0  0
 24 60  1  0  0  0  0
 25 28  1  0  0  0  0
 25 30  1  0  0  0  0
 25 61  1  0  0  0  0
 27 62  1  0  0  0  0
 27 63  1  0  0  0  0
 28 29  2  0  0  0  0
 28 31  1  0  0  0  0
 29 64  1  0  0  0  0
 30 32  1  0  0  0  0
 30 65  1  0  0  0  0
 30 66  1  0  0  0  0
 31 33  2  0  0  0  0
 31 37  1  0  0  0  0
 32 33  1  0  0  0  0
 32 36  2  0  0  0  0
 33 35  1  0  0  0  0
 34 67  1  0  0  0  0
 34 68  1  0  0  0  0
 34 69  1  0  0  0  0
 35 38  2  0  0  0  0
 36 70  1  0  0  0  0
 37 39  2  0  0  0  0
 37 71  1  0  0  0  0
 38 39  1  0  0  0  0
 38 73  1  0  0  0  0
 39 74  1  0  0  0  0
M  END
> <PUBCHEM_COMPOUND_CID>
104843

> <PUBCHEM_CONFORMER_RMSD>
1

> <PUBCHEM_CONFORMER_DIVERSEORDER>
1
6
7
10
11
8
3
12
2
5
9
13
4

> <PUBCHEM_MMFF94_PARTIAL_CHARGES>
40
1 -0.56
10 0.03
11 0.3
12 0.86
13 0.36
15 0.3
17 0.64
18 0.57
19 0.57
2 -0.68
24 0.2
25 0.41
26 0.57
27 0.27
28 -0.17
29 -0.29
3 -0.57
30 0.18
31 0.03
32 -0.18
34 0.27
35 -0.15
36 -0.3
37 -0.15
38 -0.15
39 -0.15
4 -0.57
49 0.4
5 -0.57
50 0.37
6 -0.66
64 0.15
7 -0.66
70 0.15
71 0.15
72 0.27
73 0.15
74 0.15
8 -0.73
9 -0.81

> <PUBCHEM_EFFECTIVE_ROTOR_COUNT>
6

> <PUBCHEM_PHARMACOPHORE_FEATURES>
18
1 1 acceptor
1 10 cation
1 10 donor
1 2 acceptor
1 2 donor
1 3 acceptor
1 4 acceptor
1 5 acceptor
1 8 donor
1 9 cation
3 20 22 23 hydrophobe
5 1 6 12 17 19 rings
5 10 32 33 35 36 rings
5 7 11 14 15 16 rings
6 25 28 30 31 32 33 rings
6 31 33 35 37 38 39 rings
6 6 7 11 12 13 18 rings
6 9 24 25 27 28 29 rings

> <PUBCHEM_HEAVY_ATOM_COUNT>
39

> <PUBCHEM_ATOM_DEF_STEREO_COUNT>
6

> <PUBCHEM_ATOM_UDEF_STEREO_COUNT>
0

> <PUBCHEM_BOND_DEF_STEREO_COUNT>
0

> <PUBCHEM_BOND_UDEF_STEREO_COUNT>
0

> <PUBCHEM_ISOTOPIC_ATOM_COUNT>
0

> <PUBCHEM_COMPONENT_COUNT>
1

> <PUBCHEM_CACTVS_TAUTO_COUNT>
2

> <PUBCHEM_CONFORMER_ID>
0001998B00000001

> <PUBCHEM_MMFF94_ENERGY>
117.6897

> <PUBCHEM_FEATURE_SELFOVERLAP>
91.815

> <PUBCHEM_SHAPE_FINGERPRINT>
10 15 18410013238532089950
10554248 39 16415203321774610196
10670039 82 14764352621678738443
10835480 77 18337951186672062813
11062273 23 15430586248480993469
11093857 5 18042144157450980738
11456790 92 18335691729833224064
11479125 193 18124314076215116936
12106331 60 13262670401418893314
12128747 34 18262520278106384053
12988421 55 17632309956141525887
13383668 362 18042141976282112569
13782708 43 12757145788474325182
13811026 1 18335138691562190321
13911987 19 17203324473736413309
14068700 675 14129060343984807143
14849402 71 18262800804407785692
14856354 85 18198344150572589238
15183329 4 10231763279425469902
15328829 1 17846499219415757290
15419008 145 18263070034548695560
15513586 35 17556857237283824097
1577012 14 18201433736198630612
16110190 28 18413669106252561237
18603816 31 13479139038371099505
19841028 212 14998000054690201481
21792965 78 15338292139061101028
22122407 14 18343305838000113072
2260408 40 18041282080362543406
24771293 8 18057302068755441704
312425 54 17749391429532232794
3178227 256 18334290973441746730
3383291 50 17386021593782684499
3552219 110 17273132634677845879
397830 11 18408611361323070855
4073 2 18187368731346780970
4098825 35 18409448081039624472
4144715 1 18335712623583125939
4258327 124 17846210069094780725
504843 32 17131825487044417399
5080951 261 16950557839678803059
5104073 3 18187078421479911002
5364581 5 18335424616246397289
6009941 240 18187082810978789273
6086070 43 16844993693497934113
6201460 15 13411071627691711041
6608658 132 14548742747117173579
9953998 17 17967814950998398849

> <PUBCHEM_SHAPE_MULTIPOLES>
748.35
22.67
3.88
1.7
16.54
1.75
-0.35
11.15
8.76
-0.85
0.45
-2.67
-0.93
0.98

> <PUBCHEM_SHAPE_SELFOVERLAP>
1666.353

> <PUBCHEM_SHAPE_VOLUME>
395.7

> <PUBCHEM_COORDINATE_TYPE>
2
5
10

$$$$
