119198
  -OEChem-02172602573D

 34 36  0     1  0  0  0  0  0999 V2000
    4.1726   -1.0064   -0.5359 O   0  0  0  0  0  0  0  0  0  0  0  0
   -2.4747   -0.0139   -0.7478 N   0  0  1  0  0  0  0  0  0  0  0  0
   -0.6824    1.4329    0.4443 N   0  0  1  0  0  0  0  0  0  0  0  0
   -0.6986   -0.9877    0.5330 C   0  0  1  0  0  0  0  0  0  0  0  0
   -1.6141    0.2927    0.4215 C   0  0  2  0  0  0  0  0  0  0  0  0
   -1.2401   -1.9623   -0.5172 C   0  0  0  0  0  0  0  0  0  0  0  0
    0.6591   -0.4276    0.2038 C   0  0  0  0  0  0  0  0  0  0  0  0
   -2.6506   -1.4649   -0.7720 C   0  0  0  0  0  0  0  0  0  0  0  0
    0.5930    0.9707    0.1733 C   0  0  0  0  0  0  0  0  0  0  0  0
   -0.7260   -1.5857    1.9432 C   0  0  0  0  0  0  0  0  0  0  0  0
   -3.7489    0.6896   -0.7183 C   0  0  0  0  0  0  0  0  0  0  0  0
    1.8442   -1.1107   -0.0291 C   0  0  0  0  0  0  0  0  0  0  0  0
   -1.1044    2.8047    0.3303 C   0  0  0  0  0  0  0  0  0  0  0  0
    1.7389    1.7062   -0.0934 C   0  0  0  0  0  0  0  0  0  0  0  0
    2.9920   -0.3687   -0.3020 C   0  0  0  0  0  0  0  0  0  0  0  0
    2.9399    1.0311   -0.3337 C   0  0  0  0  0  0  0  0  0  0  0  0
   -2.2458    0.3529    1.3195 H   0  0  0  0  0  0  0  0  0  0  0  0
   -1.2362   -3.0036   -0.1778 H   0  0  0  0  0  0  0  0  0  0  0  0
   -0.6601   -1.9188   -1.4484 H   0  0  0  0  0  0  0  0  0  0  0  0
   -3.0296   -1.8173   -1.7364 H   0  0  0  0  0  0  0  0  0  0  0  0
   -3.3265   -1.8085    0.0212 H   0  0  0  0  0  0  0  0  0  0  0  0
   -0.0592   -2.4523    2.0185 H   0  0  0  0  0  0  0  0  0  0  0  0
   -0.4021   -0.8569    2.6953 H   0  0  0  0  0  0  0  0  0  0  0  0
   -1.7350   -1.9167    2.2126 H   0  0  0  0  0  0  0  0  0  0  0  0
   -4.3492    0.4267   -1.5963 H   0  0  0  0  0  0  0  0  0  0  0  0
   -3.5965    1.7724   -0.7575 H   0  0  0  0  0  0  0  0  0  0  0  0
   -4.3345    0.4551    0.1778 H   0  0  0  0  0  0  0  0  0  0  0  0
    1.8771   -2.1950    0.0025 H   0  0  0  0  0  0  0  0  0  0  0  0
   -1.1503    3.1107   -0.7197 H   0  0  0  0  0  0  0  0  0  0  0  0
   -0.4217    3.4750    0.8628 H   0  0  0  0  0  0  0  0  0  0  0  0
   -2.0967    2.9415    0.7719 H   0  0  0  0  0  0  0  0  0  0  0  0
    1.7213    2.7911   -0.1211 H   0  0  0  0  0  0  0  0  0  0  0  0
    3.8359    1.6098   -0.5446 H   0  0  0  0  0  0  0  0  0  0  0  0
    4.8616   -0.3414   -0.7063 H   0  0  0  0  0  0  0  0  0  0  0  0
  1 15  1  0  0  0  0
  1 34  1  0  0  0  0
  2  5  1  0  0  0  0
  2  8  1  0  0  0  0
  2 11  1  0  0  0  0
  3  5  1  0  0  0  0
  3  9  1  0  0  0  0
  3 13  1  0  0  0  0
  4  5  1  0  0  0  0
  4  6  1  0  0  0  0
  4  7  1  0  0  0  0
  4 10  1  0  0  0  0
  5 17  1  0  0  0  0
  6  8  1  0  0  0  0
  6 18  1  0  0  0  0
  6 19  1  0  0  0  0
  7  9  2  0  0  0  0
  7 12  1  0  0  0  0
  8 20  1  0  0  0  0
  8 21  1  0  0  0  0
  9 14  1  0  0  0  0
 10 22  1  0  0  0  0
 10 23  1  0  0  0  0
 10 24  1  0  0  0  0
 11 25  1  0  0  0  0
 11 26  1  0  0  0  0
 11 27  1  0  0  0  0
 12 15  2  0  0  0  0
 12 28  1  0  0  0  0
 13 29  1  0  0  0  0
 13 30  1  0  0  0  0
 13 31  1  0  0  0  0
 14 16  2  0  0  0  0
 14 32  1  0  0  0  0
 15 16  1  0  0  0  0
 16 33  1  0  0  0  0
M  END
> <PUBCHEM_COMPOUND_CID>
119198

> <PUBCHEM_CONFORMER_RMSD>
0.4

> <PUBCHEM_CONFORMER_DIVERSEORDER>
1
2
3

> <PUBCHEM_MMFF94_PARTIAL_CHARGES>
18
1 -0.53
11 0.27
12 -0.15
13 0.37
14 -0.15
15 0.08
16 -0.15
2 -0.81
28 0.15
3 -0.84
32 0.15
33 0.15
34 0.45
4 0.14
5 0.64
7 -0.14
8 0.27
9 0.1

> <PUBCHEM_EFFECTIVE_ROTOR_COUNT>
0.8

> <PUBCHEM_PHARMACOPHORE_FEATURES>
6
1 1 donor
1 2 cation
1 3 cation
5 2 4 5 6 8 rings
5 3 4 5 7 9 rings
6 7 9 12 14 15 16 rings

> <PUBCHEM_HEAVY_ATOM_COUNT>
16

> <PUBCHEM_ATOM_DEF_STEREO_COUNT>
2

> <PUBCHEM_ATOM_UDEF_STEREO_COUNT>
0

> <PUBCHEM_BOND_DEF_STEREO_COUNT>
0

> <PUBCHEM_BOND_UDEF_STEREO_COUNT>
0

> <PUBCHEM_ISOTOPIC_ATOM_COUNT>
0

> <PUBCHEM_COMPONENT_COUNT>
1

> <PUBCHEM_CACTVS_TAUTO_COUNT>
3

> <PUBCHEM_CONFORMER_ID>
0001D19E00000001

> <PUBCHEM_MMFF94_ENERGY>
58.718

> <PUBCHEM_FEATURE_SELFOVERLAP>
30.874

> <PUBCHEM_SHAPE_FINGERPRINT>
10062212 137 18337657668301092635
10967382 1 18340205198061089485
11206711 2 18337958887400491452
11578080 2 17059758035929645169
12423570 1 16609683572506078995
12491281 212 18342748407332478273
13024252 1 17749118793767216955
13140716 1 18339363066685743994
13544592 271 18050557749190617712
14713566 1 18341326717264885643
14911166 2 18409728430660790350
15775835 57 18040711429242479679
16945 1 18340484473982870122
17844478 74 17823428273818791627
18186145 218 18040704883706987335
18534176 82 17243294108553189339
19765921 60 17894900824427919347
200 152 17418091014283855758
20645476 183 17313109652395424450
20653085 51 18333730255979665015
21501502 16 18341902891723551304
21524375 3 17975707086164234872
22112679 90 17903055751652125994
22802520 49 17901102246160172745
2334 1 18195246852102083018
23402539 116 18271233937441439684
23557571 272 17986367070496715499
23559900 14 18343295990552433800
25 1 18041554750424084063
2748010 2 18122914384684364904
353137 74 18336256830616038261
528886 8 18271799125389514787
74978 22 17676490596460455922
81228 2 18409169913335807824
8809292 202 18334298686232384202

> <PUBCHEM_SHAPE_MULTIPOLES>
313.44
5.18
2.35
1.05
1.93
0.96
0.39
-0.42
-2.01
-0.56
0.26
-0.44
-0.43
0.03

> <PUBCHEM_SHAPE_SELFOVERLAP>
680.667

> <PUBCHEM_SHAPE_VOLUME>
176.3

> <PUBCHEM_COORDINATE_TYPE>
2
5
10

$$$$
