22530143
  -OEChem-02172602473D

 70 74  0     1  0  0  0  0  0999 V2000
    0.2601   -3.2886    2.5314 S   0  0  0  0  0  0  0  0  0  0  0  0
   -2.6716   -3.7395    2.0919 S   0  0  0  0  0  0  0  0  0  0  0  0
   -3.4215   -0.5895    1.5723 O   0  0  0  0  0  0  0  0  0  0  0  0
    0.6995   -0.6365   -0.1738 O   0  0  0  0  0  0  0  0  0  0  0  0
    3.6484   -2.6221   -0.6693 O   0  0  0  0  0  0  0  0  0  0  0  0
   -3.2523   -0.9144   -1.8828 N   0  0  1  0  0  0  0  0  0  0  0  0
   -3.9225   -0.4154   -0.7490 N   0  0  0  0  0  0  0  0  0  0  0  0
   -1.0257   -1.9734    0.7165 N   0  0  0  0  0  0  0  0  0  0  0  0
    2.7321    0.9018    2.3934 N   0  0  0  0  0  0  0  0  0  0  0  0
    4.4259   -0.4760   -1.1218 N   0  0  0  0  0  0  0  0  0  0  0  0
    3.9568    1.2647    0.4132 N   0  0  0  0  0  0  0  0  0  0  0  0
   -1.9845   -1.4892   -0.1036 C   0  0  0  0  0  0  0  0  0  0  0  0
   -2.0681   -1.5051   -1.4396 C   0  0  0  0  0  0  0  0  0  0  0  0
   -3.2067   -0.8033    0.3905 C   0  0  0  0  0  0  0  0  0  0  0  0
    1.7897    3.1209    2.0552 C   0  0  0  0  0  0  0  0  0  0  0  0
    2.8504    2.2799    2.7606 C   0  0  0  0  0  0  0  0  0  0  0  0
    0.3638    2.6529    2.3626 C   0  0  0  0  0  0  0  0  0  0  0  0
   -4.9336    0.5755   -0.8148 C   0  0  0  0  0  0  0  0  0  0  0  0
    3.1442   -0.9274    0.9155 C   0  0  0  0  0  0  0  0  0  0  0  0
    3.2756    0.3868    1.2335 C   0  0  0  0  0  0  0  0  0  0  0  0
   -1.0958   -2.1029   -2.4000 C   0  0  0  0  0  0  0  0  0  0  0  0
    0.2811   -1.4850    0.6043 C   0  0  0  0  0  0  0  0  0  0  0  0
   -4.0451   -1.5312   -2.9419 C   0  0  0  0  0  0  0  0  0  0  0  0
    1.1480   -2.1577    1.6002 C   0  0  0  0  0  0  0  0  0  0  0  0
   -0.6708    3.5239    1.6493 C   0  0  0  0  0  0  0  0  0  0  0  0
    2.4433   -1.8987    1.7336 C   0  0  0  0  0  0  0  0  0  0  0  0
    4.4928    0.8477   -0.6903 C   0  0  0  0  0  0  0  0  0  0  0  0
   -1.2529   -2.9475    1.6887 C   0  0  0  0  0  0  0  0  0  0  0  0
    3.7573   -1.4346   -0.3610 C   0  0  0  0  0  0  0  0  0  0  0  0
    5.2320    1.8239   -1.5699 C   0  0  0  0  0  0  0  0  0  0  0  0
   -5.7425    0.8313    0.2970 C   0  0  0  0  0  0  0  0  0  0  0  0
   -5.1296    1.3055   -1.9914 C   0  0  0  0  0  0  0  0  0  0  0  0
    5.0214   -0.8644   -2.3160 C   0  0  0  0  0  0  0  0  0  0  0  0
   -2.0869    3.0400    1.9178 C   0  0  0  0  0  0  0  0  0  0  0  0
    5.7817    1.3762   -2.7081 C   0  0  0  0  0  0  0  0  0  0  0  0
    5.6777   -0.0009   -3.0965 C   0  0  0  0  0  0  0  0  0  0  0  0
   -6.7374    1.8069    0.2326 C   0  0  0  0  0  0  0  0  0  0  0  0
   -6.1244    2.2811   -2.0556 C   0  0  0  0  0  0  0  0  0  0  0  0
    5.3185    3.2524   -1.1311 C   0  0  0  0  0  0  0  0  0  0  0  0
   -6.9284    2.5318   -0.9435 C   0  0  0  0  0  0  0  0  0  0  0  0
    1.9048    4.1652    2.3703 H   0  0  0  0  0  0  0  0  0  0  0  0
    1.9510    3.1005    0.9706 H   0  0  0  0  0  0  0  0  0  0  0  0
    2.7095    2.3653    3.8447 H   0  0  0  0  0  0  0  0  0  0  0  0
    3.8526    2.6753    2.5560 H   0  0  0  0  0  0  0  0  0  0  0  0
    0.1906    2.6860    3.4450 H   0  0  0  0  0  0  0  0  0  0  0  0
    0.2287    1.6123    2.0449 H   0  0  0  0  0  0  0  0  0  0  0  0
   -1.5799   -2.8624   -3.0222 H   0  0  0  0  0  0  0  0  0  0  0  0
   -0.6881   -1.3277   -3.0565 H   0  0  0  0  0  0  0  0  0  0  0  0
   -0.2569   -2.5940   -1.8985 H   0  0  0  0  0  0  0  0  0  0  0  0
   -4.2147   -2.5919   -2.7226 H   0  0  0  0  0  0  0  0  0  0  0  0
   -3.5164   -1.4569   -3.8982 H   0  0  0  0  0  0  0  0  0  0  0  0
   -5.0285   -1.0740   -3.0757 H   0  0  0  0  0  0  0  0  0  0  0  0
    2.2167    0.2789    3.0054 H   0  0  0  0  0  0  0  0  0  0  0  0
   -0.5751    4.5638    1.9825 H   0  0  0  0  0  0  0  0  0  0  0  0
   -0.4875    3.5106    0.5686 H   0  0  0  0  0  0  0  0  0  0  0  0
    3.0529   -2.4334    2.4577 H   0  0  0  0  0  0  0  0  0  0  0  0
   -5.6443    0.2703    1.2206 H   0  0  0  0  0  0  0  0  0  0  0  0
   -4.5012    1.1681   -2.8667 H   0  0  0  0  0  0  0  0  0  0  0  0
    4.9384   -1.9067   -2.6037 H   0  0  0  0  0  0  0  0  0  0  0  0
   -2.3139    3.0627    2.9884 H   0  0  0  0  0  0  0  0  0  0  0  0
   -2.8108    3.6790    1.4024 H   0  0  0  0  0  0  0  0  0  0  0  0
   -2.2237    2.0156    1.5587 H   0  0  0  0  0  0  0  0  0  0  0  0
    6.3230    2.0410   -3.3731 H   0  0  0  0  0  0  0  0  0  0  0  0
    6.1374   -0.3176   -4.0252 H   0  0  0  0  0  0  0  0  0  0  0  0
    5.8752    3.8665   -1.8470 H   0  0  0  0  0  0  0  0  0  0  0  0
    5.8282    3.3268   -0.1649 H   0  0  0  0  0  0  0  0  0  0  0  0
    4.3174    3.6848   -1.0326 H   0  0  0  0  0  0  0  0  0  0  0  0
   -7.3675    1.9984    1.0963 H   0  0  0  0  0  0  0  0  0  0  0  0
   -6.2680    2.8517   -2.9685 H   0  0  0  0  0  0  0  0  0  0  0  0
   -7.7025    3.2919   -0.9934 H   0  0  0  0  0  0  0  0  0  0  0  0
  1 24  1  0  0  0  0
  1 28  1  0  0  0  0
  2 28  2  0  0  0  0
  3 14  2  0  0  0  0
  4 22  2  0  0  0  0
  5 29  2  0  0  0  0
  6  7  1  0  0  0  0
  6 13  1  0  0  0  0
  6 23  1  0  0  0  0
  7 14  1  0  0  0  0
  7 18  1  0  0  0  0
  8 12  1  0  0  0  0
  8 22  1  0  0  0  0
  8 28  1  0  0  0  0
  9 16  1  0  0  0  0
  9 20  1  0  0  0  0
  9 53  1  0  0  0  0
 10 27  1  0  0  0  0
 10 29  1  0  0  0  0
 10 33  1  0  0  0  0
 11 20  1  0  0  0  0
 11 27  2  0  0  0  0
 12 13  2  0  0  0  0
 12 14  1  0  0  0  0
 13 21  1  0  0  0  0
 15 16  1  0  0  0  0
 15 17  1  0  0  0  0
 15 41  1  0  0  0  0
 15 42  1  0  0  0  0
 16 43  1  0  0  0  0
 16 44  1  0  0  0  0
 17 25  1  0  0  0  0
 17 45  1  0  0  0  0
 17 46  1  0  0  0  0
 18 31  2  0  0  0  0
 18 32  1  0  0  0  0
 19 20  2  0  0  0  0
 19 26  1  0  0  0  0
 19 29  1  0  0  0  0
 21 47  1  0  0  0  0
 21 48  1  0  0  0  0
 21 49  1  0  0  0  0
 22 24  1  0  0  0  0
 23 50  1  0  0  0  0
 23 51  1  0  0  0  0
 23 52  1  0  0  0  0
 24 26  2  0  0  0  0
 25 34  1  0  0  0  0
 25 54  1  0  0  0  0
 25 55  1  0  0  0  0
 26 56  1  0  0  0  0
 27 30  1  0  0  0  0
 30 35  2  0  0  0  0
 30 39  1  0  0  0  0
 31 37  1  0  0  0  0
 31 57  1  0  0  0  0
 32 38  2  0  0  0  0
 32 58  1  0  0  0  0
 33 36  2  0  0  0  0
 33 59  1  0  0  0  0
 34 60  1  0  0  0  0
 34 61  1  0  0  0  0
 34 62  1  0  0  0  0
 35 36  1  0  0  0  0
 35 63  1  0  0  0  0
 36 64  1  0  0  0  0
 37 40  2  0  0  0  0
 37 68  1  0  0  0  0
 38 40  1  0  0  0  0
 38 69  1  0  0  0  0
 39 65  1  0  0  0  0
 39 66  1  0  0  0  0
 39 67  1  0  0  0  0
 40 70  1  0  0  0  0
M  END
> <PUBCHEM_COMPOUND_CID>
22530143

> <PUBCHEM_CONFORMER_RMSD>
1

> <PUBCHEM_CONFORMER_DIVERSEORDER>
1
28
56
58
43
54
8
24
34
12
10
32
3
40
30
47
23
6
42
22
52
60
39
25
48
13
31
53
7
27
29
44
16
33
50
4
18
26
41
14
21
51
2
9
19
20
55
36
59
35
49
11
46
5
45
17
15
57
37
38

> <PUBCHEM_MMFF94_PARTIAL_CHARGES>
46
1 -0.24
10 -0.23
11 -0.62
12 0.12
13 -0.04
14 0.62
16 0.37
18 0.12
19 0.01
2 -0.38
20 0.27
21 0.14
22 0.62
23 0.37
24 0.12
26 -0.15
27 0.5
28 0.58
29 0.62
3 -0.57
30 -0.12
31 -0.15
32 -0.15
33 -0.04
35 -0.15
36 -0.15
37 -0.15
38 -0.15
39 0.14
4 -0.57
40 -0.15
5 -0.57
53 0.4
56 0.15
57 0.15
58 0.15
59 0.15
6 -0.49
63 0.15
64 0.15
68 0.15
69 0.15
7 -0.16
70 0.15
8 -0.23
9 -0.87

> <PUBCHEM_EFFECTIVE_ROTOR_COUNT>
8.4

> <PUBCHEM_PHARMACOPHORE_FEATURES>
12
1 2 acceptor
1 3 acceptor
1 34 hydrophobe
1 4 acceptor
1 5 acceptor
1 9 cation
1 9 donor
5 1 8 22 24 28 rings
5 6 7 12 13 14 rings
6 10 11 19 20 27 29 rings
6 10 27 30 33 35 36 rings
6 18 31 32 37 38 40 rings

> <PUBCHEM_HEAVY_ATOM_COUNT>
40

> <PUBCHEM_ATOM_DEF_STEREO_COUNT>
0

> <PUBCHEM_ATOM_UDEF_STEREO_COUNT>
0

> <PUBCHEM_BOND_DEF_STEREO_COUNT>
1

> <PUBCHEM_BOND_UDEF_STEREO_COUNT>
0

> <PUBCHEM_ISOTOPIC_ATOM_COUNT>
0

> <PUBCHEM_COMPONENT_COUNT>
1

> <PUBCHEM_CACTVS_TAUTO_COUNT>
3

> <PUBCHEM_CONFORMER_ID>
0157C85F00000001

> <PUBCHEM_MMFF94_ENERGY>
141.7974

> <PUBCHEM_FEATURE_SELFOVERLAP>
60.929

> <PUBCHEM_SHAPE_FINGERPRINT>
11170278 133 17908701727082891093
11331351 85 17476324259458382939
11479125 193 17098646718406710492
11720765 8 18264208007719428910
11828422 8 18196920275474126352
12013929 112 16485856784178763229
12156800 1 17044649612192585064
12655364 74 14931042059436436372
12788726 201 18200318714684293640
13726171 33 17677343847559548012
13782708 43 14764337229017200493
14020679 6 14780129565517759709
14068700 675 14404915643867129562
14114211 68 18188780444099648307
14537116 161 18130214961968953677
14950920 106 13985483821911285909
15001296 14 18058709391519249273
15160629 131 17128155463560228751
15274700 21 18116447010815455811
15297060 5 18113621201043155724
19309040 13 18334018323895362542
19319366 153 18262786368410475323
20691028 202 17967817132836751485
23559900 14 16343698867515722686
23569914 2 18122315103519119700
354706 132 17969512683072954156
376196 1 17482798527672163960
392239 28 13118287026588841769
437795 70 17775012245214614425
46194498 28 17557702761725473046
5081480 168 17916883437600634776
513532 50 17417513805097281000
5252454 2 17895185623530495307
57527295 17 18341606079207876974

> <PUBCHEM_SHAPE_MULTIPOLES>
783.39
15.23
4.64
3.53
7.39
0.43
-0.5
-12.69
-12
1.27
3.04
-1.93
-0.75
0.39

> <PUBCHEM_SHAPE_SELFOVERLAP>
1677.199

> <PUBCHEM_SHAPE_VOLUME>
436.3

> <PUBCHEM_COORDINATE_TYPE>
2
5
10

$$$$
