9815668
  -OEChem-02172602353D

 30 30  0     1  0  0  0  0  0999 V2000
    0.5289   -0.5659   -1.0486 O   0  0  0  0  0  0  0  0  0  0  0  0
    1.4040    1.2169    0.2462 O   0  0  0  0  0  0  0  0  0  0  0  0
   -3.0147    1.1024    0.2591 O   0  0  0  0  0  0  0  0  0  0  0  0
   -2.1397   -1.4061    1.3516 O   0  0  0  0  0  0  0  0  0  0  0  0
   -0.7937    2.8123   -0.4610 O   0  0  0  0  0  0  0  0  0  0  0  0
    1.3518   -3.0986   -0.4479 O   0  0  0  0  0  0  0  0  0  0  0  0
   -1.6427    0.7139    0.3602 C   0  0  1  0  0  0  0  0  0  0  0  0
   -1.5609   -0.8051    0.1957 C   0  0  1  0  0  0  0  0  0  0  0  0
   -0.8427    1.4166   -0.7348 C   0  0  2  0  0  0  0  0  0  0  0  0
   -0.1073   -1.2673    0.0259 C   0  0  1  0  0  0  0  0  0  0  0  0
    0.5727    0.8490   -0.8530 C   0  0  2  0  0  0  0  0  0  0  0  0
   -0.0134   -2.7562   -0.2966 C   0  0  0  0  0  0  0  0  0  0  0  0
    2.7096    0.6771    0.1101 C   0  0  0  0  0  0  0  0  0  0  0  0
    3.5483    1.1110    1.2932 C   0  0  0  0  0  0  0  0  0  0  0  0
   -1.2997    1.0259    1.3544 H   0  0  0  0  0  0  0  0  0  0  0  0
   -2.1560   -1.1137   -0.6736 H   0  0  0  0  0  0  0  0  0  0  0  0
   -1.3683    1.2909   -1.6894 H   0  0  0  0  0  0  0  0  0  0  0  0
    0.4585   -1.0908    0.9501 H   0  0  0  0  0  0  0  0  0  0  0  0
    1.0256    1.2857   -1.7521 H   0  0  0  0  0  0  0  0  0  0  0  0
   -0.5245   -2.9957   -1.2350 H   0  0  0  0  0  0  0  0  0  0  0  0
   -0.4391   -3.3692    0.5029 H   0  0  0  0  0  0  0  0  0  0  0  0
   -3.4784    0.7530    1.0385 H   0  0  0  0  0  0  0  0  0  0  0  0
   -3.0922   -1.2129    1.3406 H   0  0  0  0  0  0  0  0  0  0  0  0
   -0.2865    2.9356    0.3596 H   0  0  0  0  0  0  0  0  0  0  0  0
    2.6838   -0.4169    0.0839 H   0  0  0  0  0  0  0  0  0  0  0  0
    3.1678    1.0422   -0.8159 H   0  0  0  0  0  0  0  0  0  0  0  0
    1.7164   -2.5469   -1.1610 H   0  0  0  0  0  0  0  0  0  0  0  0
    4.5656    0.7167    1.2176 H   0  0  0  0  0  0  0  0  0  0  0  0
    3.5965    2.2034    1.3519 H   0  0  0  0  0  0  0  0  0  0  0  0
    3.1026    0.7612    2.2303 H   0  0  0  0  0  0  0  0  0  0  0  0
  1 10  1  0  0  0  0
  1 11  1  0  0  0  0
  2 11  1  0  0  0  0
  2 13  1  0  0  0  0
  3  7  1  0  0  0  0
  3 22  1  0  0  0  0
  4  8  1  0  0  0  0
  4 23  1  0  0  0  0
  5  9  1  0  0  0  0
  5 24  1  0  0  0  0
  6 12  1  0  0  0  0
  6 27  1  0  0  0  0
  7  8  1  0  0  0  0
  7  9  1  0  0  0  0
  7 15  1  0  0  0  0
  8 10  1  0  0  0  0
  8 16  1  0  0  0  0
  9 11  1  0  0  0  0
  9 17  1  0  0  0  0
 10 12  1  0  0  0  0
 10 18  1  0  0  0  0
 11 19  1  0  0  0  0
 12 20  1  0  0  0  0
 12 21  1  0  0  0  0
 13 14  1  0  0  0  0
 13 25  1  0  0  0  0
 13 26  1  0  0  0  0
 14 28  1  0  0  0  0
 14 29  1  0  0  0  0
 14 30  1  0  0  0  0
M  END
> <PUBCHEM_COMPOUND_CID>
9815668

> <PUBCHEM_CONFORMER_RMSD>
0.6

> <PUBCHEM_CONFORMER_DIVERSEORDER>
1
11
10
5
8
4
6
7
2
9
13
3
12

> <PUBCHEM_MMFF94_PARTIAL_CHARGES>
17
1 -0.56
10 0.28
11 0.56
12 0.28
13 0.28
2 -0.56
22 0.4
23 0.4
24 0.4
27 0.4
3 -0.68
4 -0.68
5 -0.68
6 -0.68
7 0.28
8 0.28
9 0.28

> <PUBCHEM_EFFECTIVE_ROTOR_COUNT>
4.2

> <PUBCHEM_PHARMACOPHORE_FEATURES>
11
1 1 acceptor
1 2 acceptor
1 3 acceptor
1 3 donor
1 4 acceptor
1 4 donor
1 5 acceptor
1 5 donor
1 6 acceptor
1 6 donor
6 1 7 8 9 10 11 rings

> <PUBCHEM_HEAVY_ATOM_COUNT>
14

> <PUBCHEM_ATOM_DEF_STEREO_COUNT>
5

> <PUBCHEM_ATOM_UDEF_STEREO_COUNT>
0

> <PUBCHEM_BOND_DEF_STEREO_COUNT>
0

> <PUBCHEM_BOND_UDEF_STEREO_COUNT>
0

> <PUBCHEM_ISOTOPIC_ATOM_COUNT>
0

> <PUBCHEM_COMPONENT_COUNT>
1

> <PUBCHEM_CACTVS_TAUTO_COUNT>
1

> <PUBCHEM_CONFORMER_ID>
0095C67400000001

> <PUBCHEM_MMFF94_ENERGY>
33.7175

> <PUBCHEM_FEATURE_SELFOVERLAP>
55.88

> <PUBCHEM_SHAPE_FINGERPRINT>
11680986 33 18264502706245841787
13024252 1 15141778688142317540
13380535 76 18335133172760946633
15076042 46 18334006216292461080
16945 1 18263376814596572477
193761 8 18121503444930470261
20653085 51 13613700590876472536
20871998 184 18335982077041437400
220403 375 18047167696969962508
23402539 116 18055898029979847991
23419403 2 17610039192726400495
23598294 1 18263361567779254280
257057 1 17044841184908652022
2748010 2 18337973228370165215
3250762 1 18122059797687439813
4663303 62 18053091822649225324
54338 74 17907562980505781646
7364860 26 18054505798908101055
81228 2 17909534396596901630

> <PUBCHEM_SHAPE_MULTIPOLES>
252.9
3.79
3.06
1.03
3.15
1.71
-0.14
-1.21
-2
-0.76
0.68
0.13
0
0.35

> <PUBCHEM_SHAPE_SELFOVERLAP>
498.154

> <PUBCHEM_SHAPE_VOLUME>
149.3

> <PUBCHEM_COORDINATE_TYPE>
2
5
10

$$$$
