107319
  -OEChem-02172602293D

 16 16  0     1  0  0  0  0  0999 V2000
    2.3812   -0.2466    0.7618 O   0  0  0  0  0  0  0  0  0  0  0  0
   -1.0241   -0.4284   -0.0258 O   0  0  0  0  0  0  0  0  0  0  0  0
    0.2452    1.5016   -0.0036 O   0  0  0  0  0  0  0  0  0  0  0  0
    1.3032   -0.6603   -0.0662 C   0  0  2  0  0  0  0  0  0  0  0  0
    2.5953   -0.2254   -0.6554 C   0  0  0  0  0  0  0  0  0  0  0  0
    0.1391    0.2829   -0.0284 C   0  0  0  0  0  0  0  0  0  0  0  0
   -2.2226    0.3528    0.0096 C   0  0  0  0  0  0  0  0  0  0  0  0
   -3.4174   -0.5767    0.0080 C   0  0  0  0  0  0  0  0  0  0  0  0
    1.0736   -1.7195   -0.0913 H   0  0  0  0  0  0  0  0  0  0  0  0
    3.2491   -0.9812   -1.0715 H   0  0  0  0  0  0  0  0  0  0  0  0
    2.6604    0.7408   -1.1384 H   0  0  0  0  0  0  0  0  0  0  0  0
   -2.2320    0.9662    0.9175 H   0  0  0  0  0  0  0  0  0  0  0  0
   -2.2596    1.0049   -0.8702 H   0  0  0  0  0  0  0  0  0  0  0  0
   -4.3529   -0.0110    0.0347 H   0  0  0  0  0  0  0  0  0  0  0  0
   -3.4122   -1.2095   -0.8857 H   0  0  0  0  0  0  0  0  0  0  0  0
   -3.3850   -1.2476    0.8727 H   0  0  0  0  0  0  0  0  0  0  0  0
  1  4  1  0  0  0  0
  1  5  1  0  0  0  0
  2  6  1  0  0  0  0
  2  7  1  0  0  0  0
  3  6  2  0  0  0  0
  4  5  1  0  0  0  0
  4  6  1  0  0  0  0
  4  9  1  0  0  0  0
  5 10  1  0  0  0  0
  5 11  1  0  0  0  0
  7  8  1  0  0  0  0
  7 12  1  0  0  0  0
  7 13  1  0  0  0  0
  8 14  1  0  0  0  0
  8 15  1  0  0  0  0
  8 16  1  0  0  0  0
M  END
> <PUBCHEM_COMPOUND_CID>
107319

> <PUBCHEM_CONFORMER_RMSD>
0.6

> <PUBCHEM_CONFORMER_DIVERSEORDER>
3
20
19
11
17
4
12
18
1
14
2
22
15
5
13
10
7
9
6
16
8
21

> <PUBCHEM_MMFF94_PARTIAL_CHARGES>
10
1 -0.3
10 0.1
11 0.1
2 -0.43
3 -0.57
4 0.05
5 -0.05
6 0.72
7 0.28
9 0.1

> <PUBCHEM_EFFECTIVE_ROTOR_COUNT>
3.6

> <PUBCHEM_PHARMACOPHORE_FEATURES>
2
1 1 acceptor
1 3 acceptor

> <PUBCHEM_HEAVY_ATOM_COUNT>
8

> <PUBCHEM_ATOM_DEF_STEREO_COUNT>
0

> <PUBCHEM_ATOM_UDEF_STEREO_COUNT>
1

> <PUBCHEM_BOND_DEF_STEREO_COUNT>
0

> <PUBCHEM_BOND_UDEF_STEREO_COUNT>
0

> <PUBCHEM_ISOTOPIC_ATOM_COUNT>
0

> <PUBCHEM_COMPONENT_COUNT>
1

> <PUBCHEM_CACTVS_TAUTO_COUNT>
1

> <PUBCHEM_CONFORMER_ID>
0001A33700000003

> <PUBCHEM_MMFF94_ENERGY>
7.7382

> <PUBCHEM_FEATURE_SELFOVERLAP>
10.151

> <PUBCHEM_SHAPE_FINGERPRINT>
10857977 72 18341884190971383281
11062470 55 17676206870477757519
12932764 1 16128650830078207429
21293036 1 18335431191788157966
23552423 10 17970915444623554362
29004967 10 18412545396641583962
3248919 1 15936413325205813697
5460574 1 9367344834064581183

> <PUBCHEM_SHAPE_MULTIPOLES>
147.03
4.76
0.97
0.7
2.37
0.27
0
-1.13
0.11
0.05
0.01
-0.27
-0.03
0

> <PUBCHEM_SHAPE_SELFOVERLAP>
279.267

> <PUBCHEM_SHAPE_VOLUME>
92

> <PUBCHEM_COORDINATE_TYPE>
2
5
10

$$$$
