5363411
  -OEChem-02172602433D

 35 36  0     1  0  0  0  0  0999 V2000
    0.6726   -2.4596   -0.4002 O   0  0  0  0  0  0  0  0  0  0  0  0
   -3.4477    0.1187    1.4174 O   0  0  0  0  0  0  0  0  0  0  0  0
    1.2458   -1.1815   -0.0755 C   0  0  1  0  0  0  0  0  0  0  0  0
    0.4186    0.0050   -0.5416 C   0  0  2  0  0  0  0  0  0  0  0  0
    1.2477    1.3255   -0.3589 C   0  0  0  0  0  0  0  0  0  0  0  0
    1.8022   -1.1071    1.3178 C   0  0  0  0  0  0  0  0  0  0  0  0
    1.8779   -2.1116   -1.0902 C   0  0  0  0  0  0  0  0  0  0  0  0
    1.8237    1.4156    1.0810 C   0  0  0  0  0  0  0  0  0  0  0  0
    2.6132    0.1718    1.5021 C   0  0  0  0  0  0  0  0  0  0  0  0
    0.3827    2.5773   -0.6262 C   0  0  0  0  0  0  0  0  0  0  0  0
    2.4048    1.3569   -1.3865 C   0  0  0  0  0  0  0  0  0  0  0  0
   -0.9291    0.0445    0.1331 C   0  0  0  0  0  0  0  0  0  0  0  0
   -2.0882   -0.0474   -0.5317 C   0  0  0  0  0  0  0  0  0  0  0  0
   -3.3864    0.0007    0.1955 C   0  0  0  0  0  0  0  0  0  0  0  0
   -4.6376   -0.1088   -0.6360 C   0  0  0  0  0  0  0  0  0  0  0  0
    0.2412   -0.1116   -1.6212 H   0  0  0  0  0  0  0  0  0  0  0  0
    2.4388   -1.9729    1.5357 H   0  0  0  0  0  0  0  0  0  0  0  0
    0.9825   -1.1330    2.0455 H   0  0  0  0  0  0  0  0  0  0  0  0
    1.8004   -1.8700   -2.1426 H   0  0  0  0  0  0  0  0  0  0  0  0
    2.7824   -2.6410   -0.8191 H   0  0  0  0  0  0  0  0  0  0  0  0
    1.0063    1.5673    1.7978 H   0  0  0  0  0  0  0  0  0  0  0  0
    2.4739    2.2951    1.1712 H   0  0  0  0  0  0  0  0  0  0  0  0
    2.9123    0.2672    2.5523 H   0  0  0  0  0  0  0  0  0  0  0  0
    3.5395    0.1074    0.9197 H   0  0  0  0  0  0  0  0  0  0  0  0
   -0.4095    2.6965    0.1205 H   0  0  0  0  0  0  0  0  0  0  0  0
    0.9909    3.4888   -0.5928 H   0  0  0  0  0  0  0  0  0  0  0  0
   -0.0872    2.5283   -1.6149 H   0  0  0  0  0  0  0  0  0  0  0  0
    2.0170    1.3464   -2.4118 H   0  0  0  0  0  0  0  0  0  0  0  0
    3.0073    2.2653   -1.2717 H   0  0  0  0  0  0  0  0  0  0  0  0
    3.0817    0.5040   -1.2860 H   0  0  0  0  0  0  0  0  0  0  0  0
   -0.9340    0.1582    1.2141 H   0  0  0  0  0  0  0  0  0  0  0  0
   -2.1136   -0.1599   -1.6097 H   0  0  0  0  0  0  0  0  0  0  0  0
   -5.3079    0.7178   -0.3846 H   0  0  0  0  0  0  0  0  0  0  0  0
   -5.1257   -1.0642   -0.4264 H   0  0  0  0  0  0  0  0  0  0  0  0
   -4.4156   -0.0527   -1.7050 H   0  0  0  0  0  0  0  0  0  0  0  0
  1  3  1  0  0  0  0
  1  7  1  0  0  0  0
  2 14  2  0  0  0  0
  3  4  1  0  0  0  0
  3  6  1  0  0  0  0
  3  7  1  0  0  0  0
  4  5  1  0  0  0  0
  4 12  1  0  0  0  0
  4 16  1  0  0  0  0
  5  8  1  0  0  0  0
  5 10  1  0  0  0  0
  5 11  1  0  0  0  0
  6  9  1  0  0  0  0
  6 17  1  0  0  0  0
  6 18  1  0  0  0  0
  7 19  1  0  0  0  0
  7 20  1  0  0  0  0
  8  9  1  0  0  0  0
  8 21  1  0  0  0  0
  8 22  1  0  0  0  0
  9 23  1  0  0  0  0
  9 24  1  0  0  0  0
 10 25  1  0  0  0  0
 10 26  1  0  0  0  0
 10 27  1  0  0  0  0
 11 28  1  0  0  0  0
 11 29  1  0  0  0  0
 11 30  1  0  0  0  0
 12 13  2  0  0  0  0
 12 31  1  0  0  0  0
 13 14  1  0  0  0  0
 13 32  1  0  0  0  0
 14 15  1  0  0  0  0
 15 33  1  0  0  0  0
 15 34  1  0  0  0  0
 15 35  1  0  0  0  0
M  END
> <PUBCHEM_COMPOUND_CID>
5363411

> <PUBCHEM_CONFORMER_RMSD>
0.6

> <PUBCHEM_CONFORMER_DIVERSEORDER>
4
11
21
41
44
45
15
7
47
40
33
12
27
25
29
35
28
37
2
43
36
13
42
16
6
46
10
3
9
1
34
23
17
30
48
38
39
8
22
5
32
31
19
26
20
18
14
24

> <PUBCHEM_MMFF94_PARTIAL_CHARGES>
14
1 -0.3
12 -0.29
13 -0.14
14 0.49
15 0.06
19 0.1
2 -0.57
20 0.1
3 -0.04
31 0.15
32 0.15
4 0.23
6 0.09
7 -0.05

> <PUBCHEM_EFFECTIVE_ROTOR_COUNT>
3.4

> <PUBCHEM_PHARMACOPHORE_FEATURES>
4
1 1 acceptor
1 2 acceptor
3 5 10 11 hydrophobe
6 3 4 5 6 8 9 rings

> <PUBCHEM_HEAVY_ATOM_COUNT>
15

> <PUBCHEM_ATOM_DEF_STEREO_COUNT>
0

> <PUBCHEM_ATOM_UDEF_STEREO_COUNT>
2

> <PUBCHEM_BOND_DEF_STEREO_COUNT>
1

> <PUBCHEM_BOND_UDEF_STEREO_COUNT>
0

> <PUBCHEM_ISOTOPIC_ATOM_COUNT>
0

> <PUBCHEM_COMPONENT_COUNT>
1

> <PUBCHEM_CACTVS_TAUTO_COUNT>
5

> <PUBCHEM_CONFORMER_ID>
0051D6D300000004

> <PUBCHEM_MMFF94_ENERGY>
30.0312

> <PUBCHEM_FEATURE_SELFOVERLAP>
20.297

> <PUBCHEM_SHAPE_FINGERPRINT>
10219947 1 18337098029830279464
107287 299 18261406588691356653
10980938 120 18410294726800072957
11067466 332 18334575737339961004
11471102 22 18334842909885600720
116883 192 18120086183185656909
12326174 3 18186526505228602288
12346645 6 18410006663026993085
12423570 1 13745051226695941686
12725867 57 18339927000329016196
12932764 1 17703800197694201729
13134695 92 18042942376900512204
14817 1 7953010476010321632
15501101 241 18201433615137537002
16945 1 18058146389587785370
20559304 39 18272370862888234873
20645477 70 18334011697013524863
20708731 107 18341059540113127006
20871998 22 18265892449866541246
21524375 3 17684661208615583901
21730867 7 18202275892626264483
2748010 2 18050834533999263348
276578 36 18201722894011672282
298252 57 18047208611329460852
3060560 45 18340210798714385277
3250762 1 17691387630423470032
7364860 26 18060701671463746879
81228 2 17684926899724521125
81539 233 17749679604805787228

> <PUBCHEM_SHAPE_MULTIPOLES>
296.95
5.67
2.25
1.39
9.29
0.07
0.26
0.03
0.6
-1.85
-0.73
-0.72
-0.01
-0.04

> <PUBCHEM_SHAPE_SELFOVERLAP>
600.563

> <PUBCHEM_SHAPE_VOLUME>
173.4

> <PUBCHEM_COORDINATE_TYPE>
2
5
10

$$$$
