6436624
  -OEChem-02172602303D

 54 53  0     0  0  0  0  0  0999 V2000
    4.1653    0.6104    0.5483 O   0  0  0  0  0  0  0  0  0  0  0  0
    3.4406   -1.4210   -0.2743 O   0  0  0  0  0  0  0  0  0  0  0  0
   -0.0174    2.2249   -1.0224 C   0  0  0  0  0  0  0  0  0  0  0  0
   -1.3831    1.6821   -0.5984 C   0  0  0  0  0  0  0  0  0  0  0  0
    1.0097    1.0976   -1.1465 C   0  0  0  0  0  0  0  0  0  0  0  0
   -2.4068    2.8109   -0.4329 C   0  0  0  0  0  0  0  0  0  0  0  0
    2.3886    1.6407   -1.5308 C   0  0  0  0  0  0  0  0  0  0  0  0
   -3.7997    2.2997   -0.0377 C   0  0  0  0  0  0  0  0  0  0  0  0
   -3.8350   -1.9174    0.1738 C   0  0  0  0  0  0  0  0  0  0  0  0
   -2.3219   -1.7021    0.0327 C   0  0  0  0  0  0  0  0  0  0  0  0
   -4.6928   -0.6477    0.2528 C   0  0  0  0  0  0  0  0  0  0  0  0
   -1.5325   -3.0023   -0.1343 C   0  0  0  0  0  0  0  0  0  0  0  0
    3.4276    0.5343   -1.6888 C   0  0  0  0  0  0  0  0  0  0  0  0
   -3.9269    1.5306    1.2526 C   0  0  0  0  0  0  0  0  0  0  0  0
   -4.3128    0.2533    1.3915 C   0  0  0  0  0  0  0  0  0  0  0  0
   -0.0348   -2.7706   -0.3542 C   0  0  0  0  0  0  0  0  0  0  0  0
    0.7444   -4.0546   -0.5985 C   0  0  0  0  0  0  0  0  0  0  0  0
    3.6673   -0.2252   -0.4072 C   0  0  0  0  0  0  0  0  0  0  0  0
    4.4387    0.0026    1.8149 C   0  0  0  0  0  0  0  0  0  0  0  0
    4.9817    1.0539    2.7593 C   0  0  0  0  0  0  0  0  0  0  0  0
   -0.1089    2.7495   -1.9810 H   0  0  0  0  0  0  0  0  0  0  0  0
    0.3304    2.9576   -0.2840 H   0  0  0  0  0  0  0  0  0  0  0  0
   -1.2773    1.1309    0.3418 H   0  0  0  0  0  0  0  0  0  0  0  0
   -1.7426    0.9882   -1.3649 H   0  0  0  0  0  0  0  0  0  0  0  0
    0.6742    0.3779   -1.9029 H   0  0  0  0  0  0  0  0  0  0  0  0
    1.0703    0.5603   -0.1927 H   0  0  0  0  0  0  0  0  0  0  0  0
   -2.4891    3.3759   -1.3694 H   0  0  0  0  0  0  0  0  0  0  0  0
   -2.0516    3.5129    0.3318 H   0  0  0  0  0  0  0  0  0  0  0  0
    2.7201    2.3628   -0.7749 H   0  0  0  0  0  0  0  0  0  0  0  0
    2.3122    2.1865   -2.4789 H   0  0  0  0  0  0  0  0  0  0  0  0
   -4.4506    3.1791    0.0623 H   0  0  0  0  0  0  0  0  0  0  0  0
   -4.2088    1.7540   -0.8910 H   0  0  0  0  0  0  0  0  0  0  0  0
   -1.9361   -1.1599    0.9028 H   0  0  0  0  0  0  0  0  0  0  0  0
   -2.1468   -1.0827   -0.8513 H   0  0  0  0  0  0  0  0  0  0  0  0
   -4.1901   -2.5149   -0.6756 H   0  0  0  0  0  0  0  0  0  0  0  0
   -4.0174   -2.5250    1.0701 H   0  0  0  0  0  0  0  0  0  0  0  0
   -5.7386   -0.9466    0.3973 H   0  0  0  0  0  0  0  0  0  0  0  0
   -4.6561   -0.1592   -0.7222 H   0  0  0  0  0  0  0  0  0  0  0  0
   -1.9369   -3.5606   -0.9878 H   0  0  0  0  0  0  0  0  0  0  0  0
   -1.6766   -3.6312    0.7527 H   0  0  0  0  0  0  0  0  0  0  0  0
    3.1051   -0.1795   -2.4559 H   0  0  0  0  0  0  0  0  0  0  0  0
    4.3850    0.9493   -2.0237 H   0  0  0  0  0  0  0  0  0  0  0  0
   -3.6783    2.0830    2.1565 H   0  0  0  0  0  0  0  0  0  0  0  0
   -4.3647   -0.1666    2.3930 H   0  0  0  0  0  0  0  0  0  0  0  0
    0.1078   -2.1066   -1.2148 H   0  0  0  0  0  0  0  0  0  0  0  0
    0.3862   -2.2562    0.5177 H   0  0  0  0  0  0  0  0  0  0  0  0
    0.3728   -4.5733   -1.4878 H   0  0  0  0  0  0  0  0  0  0  0  0
    1.8051   -3.8336   -0.7513 H   0  0  0  0  0  0  0  0  0  0  0  0
    0.6564   -4.7321    0.2567 H   0  0  0  0  0  0  0  0  0  0  0  0
    3.5141   -0.4202    2.2237 H   0  0  0  0  0  0  0  0  0  0  0  0
    5.1777   -0.7958    1.6851 H   0  0  0  0  0  0  0  0  0  0  0  0
    5.8969    1.4990    2.3553 H   0  0  0  0  0  0  0  0  0  0  0  0
    4.2606    1.8684    2.8846 H   0  0  0  0  0  0  0  0  0  0  0  0
    5.2016    0.6226    3.7399 H   0  0  0  0  0  0  0  0  0  0  0  0
  1 18  1  0  0  0  0
  1 19  1  0  0  0  0
  2 18  2  0  0  0  0
  3  4  1  0  0  0  0
  3  5  1  0  0  0  0
  3 21  1  0  0  0  0
  3 22  1  0  0  0  0
  4  6  1  0  0  0  0
  4 23  1  0  0  0  0
  4 24  1  0  0  0  0
  5  7  1  0  0  0  0
  5 25  1  0  0  0  0
  5 26  1  0  0  0  0
  6  8  1  0  0  0  0
  6 27  1  0  0  0  0
  6 28  1  0  0  0  0
  7 13  1  0  0  0  0
  7 29  1  0  0  0  0
  7 30  1  0  0  0  0
  8 14  1  0  0  0  0
  8 31  1  0  0  0  0
  8 32  1  0  0  0  0
  9 10  1  0  0  0  0
  9 11  1  0  0  0  0
  9 35  1  0  0  0  0
  9 36  1  0  0  0  0
 10 12  1  0  0  0  0
 10 33  1  0  0  0  0
 10 34  1  0  0  0  0
 11 15  1  0  0  0  0
 11 37  1  0  0  0  0
 11 38  1  0  0  0  0
 12 16  1  0  0  0  0
 12 39  1  0  0  0  0
 12 40  1  0  0  0  0
 13 18  1  0  0  0  0
 13 41  1  0  0  0  0
 13 42  1  0  0  0  0
 14 15  2  0  0  0  0
 14 43  1  0  0  0  0
 15 44  1  0  0  0  0
 16 17  1  0  0  0  0
 16 45  1  0  0  0  0
 16 46  1  0  0  0  0
 17 47  1  0  0  0  0
 17 48  1  0  0  0  0
 17 49  1  0  0  0  0
 19 20  1  0  0  0  0
 19 50  1  0  0  0  0
 19 51  1  0  0  0  0
 20 52  1  0  0  0  0
 20 53  1  0  0  0  0
 20 54  1  0  0  0  0
M  END
> <PUBCHEM_COMPOUND_CID>
6436624

> <PUBCHEM_CONFORMER_RMSD>
1.4

> <PUBCHEM_CONFORMER_DIVERSEORDER>
3
2
70
8
48
39
67
28
26
11
71
23
35
13
66
87
42
69
9
41
86
82
80
74
83
17
4
49
50
25
60
19
78
12
18
91
43
77
59
51
72
46
30
20
14
56
37
33
54
34
63
15
6
73
32
10
62
75
55
76
65
90
24
52
5
88
68
84
53
27
58
7
40
44
85
64
57
22
61
79
47
38
16
45
31
36
81
89
21
1
29

> <PUBCHEM_MMFF94_PARTIAL_CHARGES>
11
1 -0.43
11 0.14
13 0.06
14 -0.29
15 -0.29
18 0.66
19 0.28
2 -0.57
43 0.15
44 0.15
8 0.14

> <PUBCHEM_EFFECTIVE_ROTOR_COUNT>
15

> <PUBCHEM_PHARMACOPHORE_FEATURES>
4
1 17 hydrophobe
1 2 acceptor
3 10 12 16 hydrophobe
3 9 11 15 hydrophobe

> <PUBCHEM_HEAVY_ATOM_COUNT>
20

> <PUBCHEM_ATOM_DEF_STEREO_COUNT>
0

> <PUBCHEM_ATOM_UDEF_STEREO_COUNT>
0

> <PUBCHEM_BOND_DEF_STEREO_COUNT>
1

> <PUBCHEM_BOND_UDEF_STEREO_COUNT>
0

> <PUBCHEM_ISOTOPIC_ATOM_COUNT>
0

> <PUBCHEM_COMPONENT_COUNT>
1

> <PUBCHEM_CACTVS_TAUTO_COUNT>
1

> <PUBCHEM_CONFORMER_ID>
0062371000000003

> <PUBCHEM_MMFF94_ENERGY>
2.6732

> <PUBCHEM_FEATURE_SELFOVERLAP>
20.308

> <PUBCHEM_SHAPE_FINGERPRINT>
12422481 6 18117544146709307258
12839892 36 18335702715246632733
12978246 48 18334863826597858647
13994607 96 12535350159767658205
14251751 93 18260833666056170957
14251757 17 17418098714896785851
15006816 218 18265066729882915695
15403338 16 17022890242988302107
16120349 306 18336260172058254371
17977361 122 18336836381008085237
21673915 165 18410301297851908213
338550 245 18189354397632779446
3459 110 17487601142648640896
602551 16 18412549829417338884
7064713 232 18340209600529363489
9862522 239 18335413526846132277

> <PUBCHEM_SHAPE_MULTIPOLES>
399.85
10.81
4.24
1.82
3.75
3.58
-1.08
-2.67
-6.33
-2.6
1.23
2.98
-0.95
0.22

> <PUBCHEM_SHAPE_SELFOVERLAP>
734.688

> <PUBCHEM_SHAPE_VOLUME>
252.5

> <PUBCHEM_COORDINATE_TYPE>
2
5
10

$$$$
