193299
  -OEChem-02172602543D

 43 44  0     1  0  0  0  0  0999 V2000
   -0.9959   -1.0630   -0.0990 C   0  0  1  0  0  0  0  0  0  0  0  0
   -0.6783    0.4314    0.2225 C   0  0  2  0  0  0  0  0  0  0  0  0
   -1.8113    1.3780   -0.2568 C   0  0  1  0  0  0  0  0  0  0  0  0
    0.7215    0.8301   -0.2833 C   0  0  0  0  0  0  0  0  0  0  0  0
    0.1136   -1.9517    0.5175 C   0  0  0  0  0  0  0  0  0  0  0  0
    1.8161   -0.0823    0.2954 C   0  0  1  0  0  0  0  0  0  0  0  0
   -2.3508   -1.4369    0.5516 C   0  0  0  0  0  0  0  0  0  0  0  0
    1.5196   -1.5662    0.0562 C   0  0  0  0  0  0  0  0  0  0  0  0
   -3.1520    0.9577    0.3742 C   0  0  0  0  0  0  0  0  0  0  0  0
   -3.4915   -0.5097    0.1370 C   0  0  0  0  0  0  0  0  0  0  0  0
   -1.0745   -1.3472   -1.6199 C   0  0  0  0  0  0  0  0  0  0  0  0
    3.1841    0.2909   -0.2749 C   0  0  0  0  0  0  0  0  0  0  0  0
   -1.5447    2.8488    0.0824 C   0  0  0  0  0  0  0  0  0  0  0  0
    3.4636    1.7772   -0.0674 C   0  0  0  0  0  0  0  0  0  0  0  0
    4.2806   -0.5572    0.3646 C   0  0  0  0  0  0  0  0  0  0  0  0
   -0.6420    0.5246    1.3198 H   0  0  0  0  0  0  0  0  0  0  0  0
   -1.9042    1.3133   -1.3475 H   0  0  0  0  0  0  0  0  0  0  0  0
    0.7505    0.8295   -1.3790 H   0  0  0  0  0  0  0  0  0  0  0  0
    0.9109    1.8571    0.0407 H   0  0  0  0  0  0  0  0  0  0  0  0
   -0.0674   -3.0070    0.2765 H   0  0  0  0  0  0  0  0  0  0  0  0
    0.0770   -1.8770    1.6127 H   0  0  0  0  0  0  0  0  0  0  0  0
    1.8326    0.0786    1.3834 H   0  0  0  0  0  0  0  0  0  0  0  0
   -2.2557   -1.3976    1.6451 H   0  0  0  0  0  0  0  0  0  0  0  0
   -2.6194   -2.4717    0.3043 H   0  0  0  0  0  0  0  0  0  0  0  0
    2.2212   -2.1960    0.6143 H   0  0  0  0  0  0  0  0  0  0  0  0
    1.6508   -1.8182   -1.0024 H   0  0  0  0  0  0  0  0  0  0  0  0
   -3.9630    1.5792   -0.0249 H   0  0  0  0  0  0  0  0  0  0  0  0
   -3.1208    1.1425    1.4561 H   0  0  0  0  0  0  0  0  0  0  0  0
   -4.3927   -0.7690    0.7053 H   0  0  0  0  0  0  0  0  0  0  0  0
   -3.7420   -0.6637   -0.9184 H   0  0  0  0  0  0  0  0  0  0  0  0
   -0.1429   -1.1091   -2.1403 H   0  0  0  0  0  0  0  0  0  0  0  0
   -1.2833   -2.4080   -1.8023 H   0  0  0  0  0  0  0  0  0  0  0  0
   -1.8641   -0.7766   -2.1158 H   0  0  0  0  0  0  0  0  0  0  0  0
    3.2012    0.0985   -1.3559 H   0  0  0  0  0  0  0  0  0  0  0  0
   -0.7055    3.2458   -0.4967 H   0  0  0  0  0  0  0  0  0  0  0  0
   -2.4165    3.4673   -0.1581 H   0  0  0  0  0  0  0  0  0  0  0  0
   -1.3225    2.9782    1.1470 H   0  0  0  0  0  0  0  0  0  0  0  0
    3.3017    2.0780    0.9733 H   0  0  0  0  0  0  0  0  0  0  0  0
    4.5042    2.0120   -0.3197 H   0  0  0  0  0  0  0  0  0  0  0  0
    2.8460    2.4057   -0.7164 H   0  0  0  0  0  0  0  0  0  0  0  0
    4.2334   -0.5191    1.4583 H   0  0  0  0  0  0  0  0  0  0  0  0
    5.2712   -0.1974    0.0639 H   0  0  0  0  0  0  0  0  0  0  0  0
    4.2263   -1.6034    0.0493 H   0  0  0  0  0  0  0  0  0  0  0  0
  1  2  1  0  0  0  0
  1  5  1  0  0  0  0
  1  7  1  0  0  0  0
  1 11  1  0  0  0  0
  2  3  1  0  0  0  0
  2  4  1  0  0  0  0
  2 16  1  0  0  0  0
  3  9  1  0  0  0  0
  3 13  1  0  0  0  0
  3 17  1  0  0  0  0
  4  6  1  0  0  0  0
  4 18  1  0  0  0  0
  4 19  1  0  0  0  0
  5  8  1  0  0  0  0
  5 20  1  0  0  0  0
  5 21  1  0  0  0  0
  6  8  1  0  0  0  0
  6 12  1  0  0  0  0
  6 22  1  0  0  0  0
  7 10  1  0  0  0  0
  7 23  1  0  0  0  0
  7 24  1  0  0  0  0
  8 25  1  0  0  0  0
  8 26  1  0  0  0  0
  9 10  1  0  0  0  0
  9 27  1  0  0  0  0
  9 28  1  0  0  0  0
 10 29  1  0  0  0  0
 10 30  1  0  0  0  0
 11 31  1  0  0  0  0
 11 32  1  0  0  0  0
 11 33  1  0  0  0  0
 12 14  1  0  0  0  0
 12 15  1  0  0  0  0
 12 34  1  0  0  0  0
 13 35  1  0  0  0  0
 13 36  1  0  0  0  0
 13 37  1  0  0  0  0
 14 38  1  0  0  0  0
 14 39  1  0  0  0  0
 14 40  1  0  0  0  0
 15 41  1  0  0  0  0
 15 42  1  0  0  0  0
 15 43  1  0  0  0  0
M  END
> <PUBCHEM_COMPOUND_CID>
193299

> <PUBCHEM_CONFORMER_RMSD>
0.6

> <PUBCHEM_CONFORMER_DIVERSEORDER>
1
2

> <PUBCHEM_MMFF94_PARTIAL_CHARGES>
0

> <PUBCHEM_EFFECTIVE_ROTOR_COUNT>
2.6

> <PUBCHEM_PHARMACOPHORE_FEATURES>
3
3 12 14 15 hydrophobe
6 1 2 3 7 9 10 rings
6 1 2 4 5 6 8 rings

> <PUBCHEM_HEAVY_ATOM_COUNT>
15

> <PUBCHEM_ATOM_DEF_STEREO_COUNT>
4

> <PUBCHEM_ATOM_UDEF_STEREO_COUNT>
0

> <PUBCHEM_BOND_DEF_STEREO_COUNT>
0

> <PUBCHEM_BOND_UDEF_STEREO_COUNT>
0

> <PUBCHEM_ISOTOPIC_ATOM_COUNT>
0

> <PUBCHEM_COMPONENT_COUNT>
1

> <PUBCHEM_CACTVS_TAUTO_COUNT>
1

> <PUBCHEM_CONFORMER_ID>
0002F31300000001

> <PUBCHEM_MMFF94_ENERGY>
38.0394

> <PUBCHEM_FEATURE_SELFOVERLAP>
15.238

> <PUBCHEM_SHAPE_FINGERPRINT>
10608611 8 18411136909620184664
10922523 26 18201442441685779078
10967382 1 18265336285945655864
11132069 177 18341610434077309776
12251169 10 18333726888936191288
12932764 1 17846214527080896794
13024252 1 17895190030456623295
13140716 1 18337676445918794337
13214271 11 18337954605212588991
13221675 6 18411136935263309922
13380535 76 18410011000875604554
13581323 91 18410292510554581172
13675066 3 18272365365673078450
14325111 11 18409168822497964648
14614273 12 18187357684553628613
14648413 74 17836652928825819983
14787075 74 17536322779350396195
15196674 1 18409450314369694913
15219456 202 18129107735835810166
15309172 13 18272097080155662403
15375462 478 18335704974436314887
15442244 35 18120089490362923314
15536298 74 18270118998761056686
15775835 57 18343587317471763601
16945 1 18337114453985763747
17802600 8 18411975862814651224
17804303 29 18410580569869065908
18186145 218 18058458612240753256
193761 8 18049161068617031291
20510252 161 18412830208955862792
20511035 2 17694759857981356811
20525323 117 18410851079277506647
20645477 56 17989200469602209888
20871998 184 18272093820233143959
21267235 1 18408895039517836178
21501502 16 18266456499595276115
21524375 3 18342175510002560704
23236772 104 18333448755159284883
2334 1 17978229683739447961
23402539 116 18340758312513081422
23463225 33 18333730195971448738
23559900 14 18413670210744763352
2748010 2 18122067494316300661
43471831 8 18261391109387122818
5104073 3 18409168830929729080
528886 8 18408881871137401355
53655031 270 18335421257502558307
58051976 378 18340765927521901524
69090 78 18131627885232321870
7364860 26 18196092131947595246
9709674 26 18411987944579130598

> <PUBCHEM_SHAPE_MULTIPOLES>
308.69
6.12
2.41
0.87
4.21
0.98
-0.26
0.99
0.66
-0.71
0.03
-0.21
-0.28
-0.22

> <PUBCHEM_SHAPE_SELFOVERLAP>
618.702

> <PUBCHEM_SHAPE_VOLUME>
182.3

> <PUBCHEM_COORDINATE_TYPE>
2
5
10

$$$$
