10091375
  -OEChem-02172602523D

 50 53  0     0  0  0  0  0  0999 V2000
   -3.7181    3.8599    0.1686 O   0  0  0  0  0  0  0  0  0  0  0  0
   -3.2530    1.5371    0.1178 N   0  0  0  0  0  0  0  0  0  0  0  0
   -3.9464   -0.3865    1.2856 N   0  0  0  0  0  0  0  0  0  0  0  0
   -1.7754    1.5865   -1.5650 N   0  0  0  0  0  0  0  0  0  0  0  0
   -2.2148    2.8557   -1.3266 N   0  0  0  0  0  0  0  0  0  0  0  0
    3.0429    2.9123    0.3169 N   0  0  0  0  0  0  0  0  0  0  0  0
   -2.3199   -0.6098   -0.4995 C   0  0  0  0  0  0  0  0  0  0  0  0
   -3.1007   -1.1262    0.4768 C   0  0  0  0  0  0  0  0  0  0  0  0
   -1.3579   -1.3440   -1.3810 C   0  0  0  0  0  0  0  0  0  0  0  0
   -2.4074    0.8561   -0.6992 C   0  0  0  0  0  0  0  0  0  0  0  0
   -3.1523   -2.6010    0.7808 C   0  0  0  0  0  0  0  0  0  0  0  0
    0.0753   -1.1084   -0.9911 C   0  0  0  0  0  0  0  0  0  0  0  0
   -4.0011    0.8947    1.0925 C   0  0  0  0  0  0  0  0  0  0  0  0
   -4.2309   -3.2978   -0.0364 C   0  0  0  0  0  0  0  0  0  0  0  0
   -3.1463    2.8764   -0.2762 C   0  0  0  0  0  0  0  0  0  0  0  0
    0.4390   -1.1650    0.3480 C   0  0  0  0  0  0  0  0  0  0  0  0
    1.0171   -0.8369   -1.9748 C   0  0  0  0  0  0  0  0  0  0  0  0
   -4.9026    1.7454    1.9403 C   0  0  0  0  0  0  0  0  0  0  0  0
   -4.2587   -4.7890    0.2613 C   0  0  0  0  0  0  0  0  0  0  0  0
    2.7219   -0.6728   -0.2707 C   0  0  0  0  0  0  0  0  0  0  0  0
    1.7683   -0.9461    0.7098 C   0  0  0  0  0  0  0  0  0  0  0  0
    2.3463   -0.6183   -1.6130 C   0  0  0  0  0  0  0  0  0  0  0  0
    4.1009   -0.4467    0.1045 C   0  0  0  0  0  0  0  0  0  0  0  0
    4.5822    0.8300    0.4048 C   0  0  0  0  0  0  0  0  0  0  0  0
    4.9642   -1.5433    0.1641 C   0  0  0  0  0  0  0  0  0  0  0  0
    5.9185    1.0088    0.7626 C   0  0  0  0  0  0  0  0  0  0  0  0
    6.3005   -1.3646    0.5219 C   0  0  0  0  0  0  0  0  0  0  0  0
    6.7776   -0.0885    0.8212 C   0  0  0  0  0  0  0  0  0  0  0  0
    3.7309    1.9817    0.3563 C   0  0  0  0  0  0  0  0  0  0  0  0
   -1.5296   -1.0326   -2.4202 H   0  0  0  0  0  0  0  0  0  0  0  0
   -1.5381   -2.4246   -1.3797 H   0  0  0  0  0  0  0  0  0  0  0  0
   -2.1796   -3.0748    0.6065 H   0  0  0  0  0  0  0  0  0  0  0  0
   -3.3471   -2.7455    1.8521 H   0  0  0  0  0  0  0  0  0  0  0  0
   -5.2152   -2.8694    0.1880 H   0  0  0  0  0  0  0  0  0  0  0  0
   -4.0543   -3.1530   -1.1090 H   0  0  0  0  0  0  0  0  0  0  0  0
   -0.2756   -1.3914    1.1326 H   0  0  0  0  0  0  0  0  0  0  0  0
    0.7374   -0.7926   -3.0236 H   0  0  0  0  0  0  0  0  0  0  0  0
   -1.8696    3.6320   -1.8766 H   0  0  0  0  0  0  0  0  0  0  0  0
   -5.4352    1.1298    2.6704 H   0  0  0  0  0  0  0  0  0  0  0  0
   -5.6331    2.2551    1.3058 H   0  0  0  0  0  0  0  0  0  0  0  0
   -4.3100    2.4946    2.4728 H   0  0  0  0  0  0  0  0  0  0  0  0
   -4.4675   -4.9747    1.3198 H   0  0  0  0  0  0  0  0  0  0  0  0
   -3.3013   -5.2575    0.0116 H   0  0  0  0  0  0  0  0  0  0  0  0
   -5.0397   -5.2782   -0.3293 H   0  0  0  0  0  0  0  0  0  0  0  0
    2.0450   -0.9957    1.7603 H   0  0  0  0  0  0  0  0  0  0  0  0
    3.0772   -0.4065   -2.3901 H   0  0  0  0  0  0  0  0  0  0  0  0
    4.6116   -2.5464   -0.0656 H   0  0  0  0  0  0  0  0  0  0  0  0
    6.3074    1.9965    0.9992 H   0  0  0  0  0  0  0  0  0  0  0  0
    6.9695   -2.2189    0.5675 H   0  0  0  0  0  0  0  0  0  0  0  0
    7.8181    0.0504    1.0998 H   0  0  0  0  0  0  0  0  0  0  0  0
  1 15  2  0  0  0  0
  2 10  1  0  0  0  0
  2 13  1  0  0  0  0
  2 15  1  0  0  0  0
  3  8  1  0  0  0  0
  3 13  2  0  0  0  0
  4  5  1  0  0  0  0
  4 10  2  0  0  0  0
  5 15  1  0  0  0  0
  5 38  1  0  0  0  0
  6 29  3  0  0  0  0
  7  8  2  0  0  0  0
  7  9  1  0  0  0  0
  7 10  1  0  0  0  0
  8 11  1  0  0  0  0
  9 12  1  0  0  0  0
  9 30  1  0  0  0  0
  9 31  1  0  0  0  0
 11 14  1  0  0  0  0
 11 32  1  0  0  0  0
 11 33  1  0  0  0  0
 12 16  2  0  0  0  0
 12 17  1  0  0  0  0
 13 18  1  0  0  0  0
 14 19  1  0  0  0  0
 14 34  1  0  0  0  0
 14 35  1  0  0  0  0
 16 21  1  0  0  0  0
 16 36  1  0  0  0  0
 17 22  2  0  0  0  0
 17 37  1  0  0  0  0
 18 39  1  0  0  0  0
 18 40  1  0  0  0  0
 18 41  1  0  0  0  0
 19 42  1  0  0  0  0
 19 43  1  0  0  0  0
 19 44  1  0  0  0  0
 20 21  2  0  0  0  0
 20 22  1  0  0  0  0
 20 23  1  0  0  0  0
 21 45  1  0  0  0  0
 22 46  1  0  0  0  0
 23 24  1  0  0  0  0
 23 25  2  0  0  0  0
 24 26  2  0  0  0  0
 24 29  1  0  0  0  0
 25 27  1  0  0  0  0
 25 47  1  0  0  0  0
 26 28  1  0  0  0  0
 26 48  1  0  0  0  0
 27 28  2  0  0  0  0
 27 49  1  0  0  0  0
 28 50  1  0  0  0  0
M  END
> <PUBCHEM_COMPOUND_CID>
10091375

> <PUBCHEM_CONFORMER_RMSD>
0.8

> <PUBCHEM_CONFORMER_DIVERSEORDER>
3
27
8
60
48
22
29
49
41
36
28
31
63
50
38
43
23
46
51
21
34
32
6
62
65
16
2
24
59
7
5
61
10
20
39
56
42
44
33
11
64
57
40
35
30
25
9
45
15
12
37
4
1
14
52
55
18
26
13
54
47
53
58
17
19

> <PUBCHEM_MMFF94_PARTIAL_CHARGES>
34
1 -0.57
10 0.5
11 0.14
12 -0.14
13 0.45
15 0.69
16 -0.15
17 -0.15
18 0.06
2 -0.18
21 -0.15
22 -0.15
24 0.07
25 -0.15
26 -0.15
27 -0.15
28 -0.15
29 0.48
3 -0.62
36 0.15
37 0.15
38 0.37
4 -0.51
45 0.15
46 0.15
47 0.15
48 0.15
49 0.15
5 -0.37
50 0.15
6 -0.56
7 -0.12
8 0.03
9 0.28

> <PUBCHEM_EFFECTIVE_ROTOR_COUNT>
5

> <PUBCHEM_PHARMACOPHORE_FEATURES>
8
1 1 acceptor
1 19 hydrophobe
1 5 donor
1 6 acceptor
5 2 4 5 10 15 rings
6 12 16 17 20 21 22 rings
6 2 3 7 8 10 13 rings
6 23 24 25 26 27 28 rings

> <PUBCHEM_HEAVY_ATOM_COUNT>
29

> <PUBCHEM_ATOM_DEF_STEREO_COUNT>
0

> <PUBCHEM_ATOM_UDEF_STEREO_COUNT>
0

> <PUBCHEM_BOND_DEF_STEREO_COUNT>
0

> <PUBCHEM_BOND_UDEF_STEREO_COUNT>
0

> <PUBCHEM_ISOTOPIC_ATOM_COUNT>
0

> <PUBCHEM_COMPONENT_COUNT>
1

> <PUBCHEM_CACTVS_TAUTO_COUNT>
2

> <PUBCHEM_CONFORMER_ID>
0099FB6F00000003

> <PUBCHEM_MMFF94_ENERGY>
81.5304

> <PUBCHEM_FEATURE_SELFOVERLAP>
40.707

> <PUBCHEM_SHAPE_FINGERPRINT>
10319926 262 18339370686332546206
10369192 42 17059223725076862660
11370993 144 18265048033906113318
11552529 35 18334849519851162739
11796584 16 11603081887017612602
12107183 9 17974840671602921602
12166972 35 17169263956496123591
12403259 118 18202564016360126922
12422481 6 18413394228556815080
12596602 18 15936703613825174756
12633257 1 18411144610343565785
13583140 156 18337099099567572526
14341114 176 18335141964727936528
15484559 13 14178101581887116746
15950262 2 15551663305174968923
16992727 255 18188192249304531615
17349148 13 16443069421588757434
17844677 252 18410576206388300842
18222031 100 16371275745065477958
21033648 29 18124331410713269389
21792934 111 18260555528817591457
22956985 138 17256242074026888323
23522609 53 17749971972837542548
3459 110 18411420643549057608
392239 28 18260269680551291056
4144715 1 18341058423970470474
4169191 19 15194133116486083018
5081480 168 16842785741528010028
508706 21 18338220601201355812
5104073 3 18341038684537973570
57527293 21 18198360622114897787
57724786 102 17558555707617447718
5924683 9 18408603690733357595
7288768 16 17916034447579248705

> <PUBCHEM_SHAPE_MULTIPOLES>
566.03
14.25
4.18
1.44
17.04
0.43
0.32
1
-6.23
-7.86
-0.25
-0.76
-0.2
0.35

> <PUBCHEM_SHAPE_SELFOVERLAP>
1243.244

> <PUBCHEM_SHAPE_VOLUME>
303.1

> <PUBCHEM_COORDINATE_TYPE>
2
5
10

$$$$
