134715135
  -OEChem-02172602283D

 78 80  0     1  0  0  0  0  0999 V2000
   -1.9655    0.1439   -0.1471 O   0  0  0  0  0  0  0  0  0  0  0  0
    3.0074    1.2387    1.3762 O   0  0  0  0  0  0  0  0  0  0  0  0
    1.5634    3.3938    0.2696 O   0  0  0  0  0  0  0  0  0  0  0  0
    5.1008   -0.5871    0.5125 O   0  0  0  0  0  0  0  0  0  0  0  0
   -3.7971   -1.1592   -0.6815 O   0  0  0  0  0  0  0  0  0  0  0  0
    5.2089    1.0018    2.0349 O   0  0  0  0  0  0  0  0  0  0  0  0
    0.7229   -4.0917    0.4975 C   0  0  0  0  0  0  0  0  0  0  0  0
    0.0172   -3.0505   -0.3630 C   0  0  2  0  0  0  0  0  0  0  0  0
    1.5260   -3.2106   -0.4488 C   0  0  1  0  0  0  0  0  0  0  0  0
   -0.6946   -1.8777    0.2552 C   0  0  0  0  0  0  0  0  0  0  0  0
    0.5473   -5.5386    0.0924 C   0  0  0  0  0  0  0  0  0  0  0  0
    0.8154   -3.9224    1.9949 C   0  0  0  0  0  0  0  0  0  0  0  0
    2.4179   -2.1324    0.0083 C   0  0  0  0  0  0  0  0  0  0  0  0
   -1.0943   -0.8008   -0.7720 C   0  0  2  0  0  0  0  0  0  0  0  0
    3.3846    1.0438    0.0150 C   0  0  1  0  0  0  0  0  0  0  0  0
    2.2009    1.3485   -0.9351 C   0  0  2  0  0  0  0  0  0  0  0  0
    3.3161   -1.4582   -0.7338 C   0  0  0  0  0  0  0  0  0  0  0  0
    4.4129    2.1233   -0.3802 C   0  0  0  0  0  0  0  0  0  0  0  0
    2.1373    2.8848   -0.9322 C   0  0  2  0  0  0  0  0  0  0  0  0
    0.0895   -0.0513   -1.3598 C   0  0  0  0  0  0  0  0  0  0  0  0
    3.6140    3.3111   -0.9676 C   0  0  2  0  0  0  0  0  0  0  0  0
    4.0237   -0.3508   -0.0371 C   0  0  0  0  0  0  0  0  0  0  0  0
    0.9003    0.6811   -0.5675 C   0  0  0  0  0  0  0  0  0  0  0  0
    3.6621   -1.6743   -2.1703 C   0  0  0  0  0  0  0  0  0  0  0  0
    0.2700   -0.2351   -2.8414 C   0  0  0  0  0  0  0  0  0  0  0  0
    4.0770    3.6304   -2.3880 C   0  0  0  0  0  0  0  0  0  0  0  0
   -3.2903   -0.1685   -0.1797 C   0  0  0  0  0  0  0  0  0  0  0  0
    4.0263    1.1922    2.2844 C   0  0  0  0  0  0  0  0  0  0  0  0
   -4.0250    0.9157    0.5086 C   0  0  0  0  0  0  0  0  0  0  0  0
    3.4844    1.4116    3.6643 C   0  0  0  0  0  0  0  0  0  0  0  0
   -5.3589    0.8523    0.6167 C   0  0  0  0  0  0  0  0  0  0  0  0
   -6.1378    1.8769    1.2758 C   0  0  0  0  0  0  0  0  0  0  0  0
   -7.4734    1.8243    1.3902 C   0  0  0  0  0  0  0  0  0  0  0  0
   -8.3104    0.7003    0.8494 C   0  0  0  0  0  0  0  0  0  0  0  0
   -8.7715    0.9389   -0.5907 C   0  0  0  0  0  0  0  0  0  0  0  0
   -9.6074   -0.2040   -1.1500 C   0  0  0  0  0  0  0  0  0  0  0  0
   -0.5558   -3.4316   -1.2052 H   0  0  0  0  0  0  0  0  0  0  0  0
    1.8969   -3.7195   -1.3358 H   0  0  0  0  0  0  0  0  0  0  0  0
   -0.1236   -1.4197    1.0695 H   0  0  0  0  0  0  0  0  0  0  0  0
   -1.6038   -2.2615    0.7360 H   0  0  0  0  0  0  0  0  0  0  0  0
   -0.3679   -5.9483    0.5324 H   0  0  0  0  0  0  0  0  0  0  0  0
    1.3964   -6.1360    0.4405 H   0  0  0  0  0  0  0  0  0  0  0  0
    0.4773   -5.6577   -0.9944 H   0  0  0  0  0  0  0  0  0  0  0  0
   -0.0716   -4.3498    2.4751 H   0  0  0  0  0  0  0  0  0  0  0  0
    0.8891   -2.8839    2.3243 H   0  0  0  0  0  0  0  0  0  0  0  0
    1.6949   -4.4516    2.3772 H   0  0  0  0  0  0  0  0  0  0  0  0
    2.3167   -1.8302    1.0483 H   0  0  0  0  0  0  0  0  0  0  0  0
   -1.6215   -1.2905   -1.6023 H   0  0  0  0  0  0  0  0  0  0  0  0
    2.5045    1.0414   -1.9410 H   0  0  0  0  0  0  0  0  0  0  0  0
    5.0320    2.5262    0.4234 H   0  0  0  0  0  0  0  0  0  0  0  0
    5.1060    1.7259   -1.1333 H   0  0  0  0  0  0  0  0  0  0  0  0
    1.5531    3.2700   -1.7748 H   0  0  0  0  0  0  0  0  0  0  0  0
    3.7771    4.2007   -0.3463 H   0  0  0  0  0  0  0  0  0  0  0  0
    0.6299    0.7604    0.4848 H   0  0  0  0  0  0  0  0  0  0  0  0
    4.6068   -2.2220   -2.2482 H   0  0  0  0  0  0  0  0  0  0  0  0
    3.7831   -0.7220   -2.6955 H   0  0  0  0  0  0  0  0  0  0  0  0
    2.8945   -2.2398   -2.7052 H   0  0  0  0  0  0  0  0  0  0  0  0
    3.9431    2.7756   -3.0593 H   0  0  0  0  0  0  0  0  0  0  0  0
    3.5091    4.4727   -2.7969 H   0  0  0  0  0  0  0  0  0  0  0  0
    5.1370    3.9051   -2.3957 H   0  0  0  0  0  0  0  0  0  0  0  0
    0.4955   -1.2818   -3.0688 H   0  0  0  0  0  0  0  0  0  0  0  0
    1.0643    0.3807   -3.2673 H   0  0  0  0  0  0  0  0  0  0  0  0
   -0.6520    0.0394   -3.3658 H   0  0  0  0  0  0  0  0  0  0  0  0
    1.5608    4.3640    0.2033 H   0  0  0  0  0  0  0  0  0  0  0  0
   -3.4558    1.7435    0.9195 H   0  0  0  0  0  0  0  0  0  0  0  0
    3.0110    2.3948    3.7238 H   0  0  0  0  0  0  0  0  0  0  0  0
    4.3050    1.3751    4.3864 H   0  0  0  0  0  0  0  0  0  0  0  0
    2.7684    0.6233    3.9099 H   0  0  0  0  0  0  0  0  0  0  0  0
   -5.8747    0.0049    0.1786 H   0  0  0  0  0  0  0  0  0  0  0  0
   -5.6096    2.7308    1.6915 H   0  0  0  0  0  0  0  0  0  0  0  0
   -7.9913    2.6417    1.8849 H   0  0  0  0  0  0  0  0  0  0  0  0
   -9.1965    0.6146    1.4926 H   0  0  0  0  0  0  0  0  0  0  0  0
   -7.8118   -0.2706    0.9415 H   0  0  0  0  0  0  0  0  0  0  0  0
   -9.3589    1.8641   -0.6400 H   0  0  0  0  0  0  0  0  0  0  0  0
   -7.9012    1.0835   -1.2424 H   0  0  0  0  0  0  0  0  0  0  0  0
   -9.0359   -1.1375   -1.1574 H   0  0  0  0  0  0  0  0  0  0  0  0
   -9.9141    0.0165   -2.1771 H   0  0  0  0  0  0  0  0  0  0  0  0
  -10.5095   -0.3574   -0.5495 H   0  0  0  0  0  0  0  0  0  0  0  0
  1 14  1  0  0  0  0
  1 27  1  0  0  0  0
  2 15  1  0  0  0  0
  2 28  1  0  0  0  0
  3 19  1  0  0  0  0
  3 64  1  0  0  0  0
  4 22  2  0  0  0  0
  5 27  2  0  0  0  0
  6 28  2  0  0  0  0
  7  8  1  0  0  0  0
  7  9  1  0  0  0  0
  7 11  1  0  0  0  0
  7 12  1  0  0  0  0
  8  9  1  0  0  0  0
  8 10  1  0  0  0  0
  8 37  1  0  0  0  0
  9 13  1  0  0  0  0
  9 38  1  0  0  0  0
 10 14  1  0  0  0  0
 10 39  1  0  0  0  0
 10 40  1  0  0  0  0
 11 41  1  0  0  0  0
 11 42  1  0  0  0  0
 11 43  1  0  0  0  0
 12 44  1  0  0  0  0
 12 45  1  0  0  0  0
 12 46  1  0  0  0  0
 13 17  2  0  0  0  0
 13 47  1  0  0  0  0
 14 20  1  0  0  0  0
 14 48  1  0  0  0  0
 15 16  1  0  0  0  0
 15 18  1  0  0  0  0
 15 22  1  0  0  0  0
 16 19  1  0  0  0  0
 16 23  1  0  0  0  0
 16 49  1  0  0  0  0
 17 22  1  0  0  0  0
 17 24  1  0  0  0  0
 18 21  1  0  0  0  0
 18 50  1  0  0  0  0
 18 51  1  0  0  0  0
 19 21  1  0  0  0  0
 19 52  1  0  0  0  0
 20 23  2  0  0  0  0
 20 25  1  0  0  0  0
 21 26  1  0  0  0  0
 21 53  1  0  0  0  0
 23 54  1  0  0  0  0
 24 55  1  0  0  0  0
 24 56  1  0  0  0  0
 24 57  1  0  0  0  0
 25 61  1  0  0  0  0
 25 62  1  0  0  0  0
 25 63  1  0  0  0  0
 26 58  1  0  0  0  0
 26 59  1  0  0  0  0
 26 60  1  0  0  0  0
 27 29  1  0  0  0  0
 28 30  1  0  0  0  0
 29 31  2  0  0  0  0
 29 65  1  0  0  0  0
 30 66  1  0  0  0  0
 30 67  1  0  0  0  0
 30 68  1  0  0  0  0
 31 32  1  0  0  0  0
 31 69  1  0  0  0  0
 32 33  2  0  0  0  0
 32 70  1  0  0  0  0
 33 34  1  0  0  0  0
 33 71  1  0  0  0  0
 34 35  1  0  0  0  0
 34 72  1  0  0  0  0
 34 73  1  0  0  0  0
 35 36  1  0  0  0  0
 35 74  1  0  0  0  0
 35 75  1  0  0  0  0
 36 76  1  0  0  0  0
 36 77  1  0  0  0  0
 36 78  1  0  0  0  0
M  END
> <PUBCHEM_COMPOUND_CID>
134715135

> <PUBCHEM_CONFORMER_RMSD>
1

> <PUBCHEM_CONFORMER_DIVERSEORDER>
1
6
28
11
31
14
8
35
32
15
21
4
12
20
33
23
3
25
13
18
16
27
26
2
22
24
17
5
7
19
29
9
34
10
30

> <PUBCHEM_MMFF94_PARTIAL_CHARGES>
40
1 -0.43
10 0.09
11 0.09
12 0.09
13 -0.19
14 0.42
15 0.34
16 0.14
17 -0.12
19 0.28
2 -0.43
20 -0.28
22 0.49
23 -0.29
24 0.14
25 0.14
27 0.71
28 0.66
29 -0.14
3 -0.68
30 0.06
31 -0.15
32 -0.15
33 -0.29
34 0.14
37 0.1
38 0.1
4 -0.57
47 0.15
5 -0.57
54 0.15
6 -0.57
64 0.4
65 0.15
69 0.15
7 -0.19
70 0.15
71 0.15
8 -0.19
9 -0.06

> <PUBCHEM_EFFECTIVE_ROTOR_COUNT>
9.2

> <PUBCHEM_PHARMACOPHORE_FEATURES>
8
1 3 acceptor
1 3 donor
1 36 hydrophobe
1 4 acceptor
1 5 acceptor
1 6 acceptor
3 7 11 12 hydrophobe
5 15 16 18 19 21 rings

> <PUBCHEM_HEAVY_ATOM_COUNT>
36

> <PUBCHEM_ATOM_DEF_STEREO_COUNT>
7

> <PUBCHEM_ATOM_UDEF_STEREO_COUNT>
0

> <PUBCHEM_BOND_DEF_STEREO_COUNT>
4

> <PUBCHEM_BOND_UDEF_STEREO_COUNT>
0

> <PUBCHEM_ISOTOPIC_ATOM_COUNT>
0

> <PUBCHEM_COMPONENT_COUNT>
1

> <PUBCHEM_CACTVS_TAUTO_COUNT>
9

> <PUBCHEM_CONFORMER_ID>
080796FF00000001

> <PUBCHEM_MMFF94_ENERGY>
109.3309

> <PUBCHEM_FEATURE_SELFOVERLAP>
40.676

> <PUBCHEM_SHAPE_FINGERPRINT>
10165383 225 18262249841612869310
10675989 125 18412272722201211912
10816530 23 18046641258617966440
11115154 58 16986337992529518626
1200032 147 17968674829469385988
12047536 79 16877654678529095645
12633257 1 18043229427409119078
12788726 201 17541657652866127626
13692114 37 18335424603958140507
15238133 3 18271527606453419192
15328829 1 18131342009027073613
15392192 104 18188510055172046065
15439362 3 18337687407403763028
15840311 113 17846775183010176713
16096371 109 18260274023385531539
20511986 3 17988914553830087221
21033648 29 18341894142574177802
21716022 299 14403237698649626991
21796203 349 17169523321709149912
3178227 256 18260554381486453162
34797466 226 15267062571325439649
4112364 45 16701154461819527186
5109719 28 18337968856689427273
57527573 199 17773862268459667608
57527585 21 17693936697740425886
9849439 229 18270955876969575857

> <PUBCHEM_SHAPE_MULTIPOLES>
705.65
18.04
5.3
2.33
64.54
5.64
1.08
-13.31
2.31
-6.13
-0.02
-2.81
-1.08
-1.29

> <PUBCHEM_SHAPE_SELFOVERLAP>
1459.139

> <PUBCHEM_SHAPE_VOLUME>
403.1

> <PUBCHEM_COORDINATE_TYPE>
2
5
10

$$$$
