10183127
  -OEChem-02172602513D

 76 78  0     1  0  0  0  0  0999 V2000
   -3.0836   -0.8475   -1.5369 O   0  0  0  0  0  0  0  0  0  0  0  0
   -2.7923   -1.6916    1.5904 O   0  0  0  0  0  0  0  0  0  0  0  0
   -3.3880   -3.5275    0.3270 O   0  0  0  0  0  0  0  0  0  0  0  0
   -0.2096   -1.7681   -0.0907 O   0  0  0  0  0  0  0  0  0  0  0  0
    1.0251   -3.4215   -1.1591 N   0  0  0  0  0  0  0  0  0  0  0  0
    4.4208   -1.0259    0.0596 N   0  0  0  0  0  0  0  0  0  0  0  0
    5.0733    0.4803    1.5555 N   0  0  0  0  0  0  0  0  0  0  0  0
   -1.5975    2.1130    0.4495 C   0  0  1  0  0  0  0  0  0  0  0  0
   -0.3388    2.1485   -0.4992 C   0  0  2  0  0  0  0  0  0  0  0  0
   -2.3771    0.7622    0.1436 C   0  0  2  0  0  0  0  0  0  0  0  0
    0.7353    3.2506   -0.1892 C   0  0  0  0  0  0  0  0  0  0  0  0
   -2.7362    0.5406   -1.3621 C   0  0  1  0  0  0  0  0  0  0  0  0
   -1.0897    2.0909    1.9218 C   0  0  0  0  0  0  0  0  0  0  0  0
   -0.7523    2.0568   -1.9820 C   0  0  0  0  0  0  0  0  0  0  0  0
   -1.5058    0.7590   -2.2557 C   0  0  0  0  0  0  0  0  0  0  0  0
    1.1127    3.1802    1.3111 C   0  0  0  0  0  0  0  0  0  0  0  0
   -0.0802    3.1891    2.2561 C   0  0  0  0  0  0  0  0  0  0  0  0
   -2.5283    3.3392    0.2886 C   0  0  0  0  0  0  0  0  0  0  0  0
   -3.5735    0.4916    1.0786 C   0  0  0  0  0  0  0  0  0  0  0  0
    2.0366    2.9631   -0.9845 C   0  0  0  0  0  0  0  0  0  0  0  0
    0.3033    4.6787   -0.5685 C   0  0  0  0  0  0  0  0  0  0  0  0
   -3.9320    1.3445   -1.8893 C   0  0  0  0  0  0  0  0  0  0  0  0
   -3.9215   -0.9802    1.1029 C   0  0  0  0  0  0  0  0  0  0  0  0
   -2.6403   -2.9695    1.1182 C   0  0  0  0  0  0  0  0  0  0  0  0
   -1.3937   -3.5790    1.7228 C   0  0  0  0  0  0  0  0  0  0  0  0
   -0.4022   -4.0610    0.6675 C   0  0  0  0  0  0  0  0  0  0  0  0
    0.1286   -2.9419   -0.2151 C   0  0  0  0  0  0  0  0  0  0  0  0
    1.6816   -2.5758   -2.1301 C   0  0  0  0  0  0  0  0  0  0  0  0
    2.5309   -1.4921   -1.4754 C   0  0  0  0  0  0  0  0  0  0  0  0
    3.6190   -2.0713   -0.5693 C   0  0  0  0  0  0  0  0  0  0  0  0
    5.5626   -0.4689   -0.4437 C   0  0  0  0  0  0  0  0  0  0  0  0
    4.1664   -0.4244    1.2607 C   0  0  0  0  0  0  0  0  0  0  0  0
    5.9464    0.4580    0.4968 C   0  0  0  0  0  0  0  0  0  0  0  0
    0.1931    1.2034   -0.2959 H   0  0  0  0  0  0  0  0  0  0  0  0
   -1.6440   -0.0132    0.3820 H   0  0  0  0  0  0  0  0  0  0  0  0
   -1.9242    2.1970    2.6238 H   0  0  0  0  0  0  0  0  0  0  0  0
   -0.6221    1.1202    2.1341 H   0  0  0  0  0  0  0  0  0  0  0  0
   -1.3559    2.9153   -2.2892 H   0  0  0  0  0  0  0  0  0  0  0  0
    0.1292    2.0586   -2.6305 H   0  0  0  0  0  0  0  0  0  0  0  0
   -0.8109   -0.0822   -2.1287 H   0  0  0  0  0  0  0  0  0  0  0  0
   -1.7928    0.7210   -3.3148 H   0  0  0  0  0  0  0  0  0  0  0  0
    1.7833    4.0084    1.5738 H   0  0  0  0  0  0  0  0  0  0  0  0
    1.6824    2.2590    1.4976 H   0  0  0  0  0  0  0  0  0  0  0  0
    0.2785    3.0381    3.2817 H   0  0  0  0  0  0  0  0  0  0  0  0
   -0.5567    4.1742    2.2511 H   0  0  0  0  0  0  0  0  0  0  0  0
   -2.2223    4.1865    0.9057 H   0  0  0  0  0  0  0  0  0  0  0  0
   -3.5509    3.1167    0.6069 H   0  0  0  0  0  0  0  0  0  0  0  0
   -2.5755    3.7102   -0.7356 H   0  0  0  0  0  0  0  0  0  0  0  0
   -4.4537    1.0786    0.8033 H   0  0  0  0  0  0  0  0  0  0  0  0
   -3.3253    0.7740    2.1051 H   0  0  0  0  0  0  0  0  0  0  0  0
    1.9102    3.1388   -2.0574 H   0  0  0  0  0  0  0  0  0  0  0  0
    2.8532    3.6144   -0.6503 H   0  0  0  0  0  0  0  0  0  0  0  0
    2.3680    1.9276   -0.8474 H   0  0  0  0  0  0  0  0  0  0  0  0
   -0.0112    4.7404   -1.6152 H   0  0  0  0  0  0  0  0  0  0  0  0
   -0.5082    5.0599    0.0505 H   0  0  0  0  0  0  0  0  0  0  0  0
    1.1367    5.3808   -0.4429 H   0  0  0  0  0  0  0  0  0  0  0  0
   -4.1495    1.0657   -2.9282 H   0  0  0  0  0  0  0  0  0  0  0  0
   -3.7741    2.4217   -1.8773 H   0  0  0  0  0  0  0  0  0  0  0  0
   -4.8482    1.1153   -1.3367 H   0  0  0  0  0  0  0  0  0  0  0  0
   -3.2606   -1.0007   -2.4807 H   0  0  0  0  0  0  0  0  0  0  0  0
   -4.3356   -1.3602    0.1687 H   0  0  0  0  0  0  0  0  0  0  0  0
   -4.7188   -1.1199    1.8441 H   0  0  0  0  0  0  0  0  0  0  0  0
   -1.7099   -4.4117    2.3606 H   0  0  0  0  0  0  0  0  0  0  0  0
   -0.9064   -2.8446    2.3757 H   0  0  0  0  0  0  0  0  0  0  0  0
   -0.8787   -4.8066    0.0197 H   0  0  0  0  0  0  0  0  0  0  0  0
    0.4502   -4.5400    1.1632 H   0  0  0  0  0  0  0  0  0  0  0  0
    1.2201   -4.4179   -1.1934 H   0  0  0  0  0  0  0  0  0  0  0  0
    0.9065   -2.1146   -2.7516 H   0  0  0  0  0  0  0  0  0  0  0  0
    2.2959   -3.2194   -2.7680 H   0  0  0  0  0  0  0  0  0  0  0  0
    1.9074   -0.7950   -0.9046 H   0  0  0  0  0  0  0  0  0  0  0  0
    2.9986   -0.8914   -2.2660 H   0  0  0  0  0  0  0  0  0  0  0  0
    3.1955   -2.6722    0.2431 H   0  0  0  0  0  0  0  0  0  0  0  0
    4.3058   -2.7092   -1.1373 H   0  0  0  0  0  0  0  0  0  0  0  0
    5.9876   -0.7666   -1.3921 H   0  0  0  0  0  0  0  0  0  0  0  0
    3.3112   -0.6821    1.8706 H   0  0  0  0  0  0  0  0  0  0  0  0
    6.8066    1.1105    0.4650 H   0  0  0  0  0  0  0  0  0  0  0  0
  1 12  1  0  0  0  0
  1 60  1  0  0  0  0
  2 23  1  0  0  0  0
  2 24  1  0  0  0  0
  3 24  2  0  0  0  0
  4 27  2  0  0  0  0
  5 27  1  0  0  0  0
  5 28  1  0  0  0  0
  5 67  1  0  0  0  0
  6 30  1  0  0  0  0
  6 31  1  0  0  0  0
  6 32  1  0  0  0  0
  7 32  2  0  0  0  0
  7 33  1  0  0  0  0
  8  9  1  0  0  0  0
  8 10  1  0  0  0  0
  8 13  1  0  0  0  0
  8 18  1  0  0  0  0
  9 11  1  0  0  0  0
  9 14  1  0  0  0  0
  9 34  1  0  0  0  0
 10 12  1  0  0  0  0
 10 19  1  0  0  0  0
 10 35  1  0  0  0  0
 11 16  1  0  0  0  0
 11 20  1  0  0  0  0
 11 21  1  0  0  0  0
 12 15  1  0  0  0  0
 12 22  1  0  0  0  0
 13 17  1  0  0  0  0
 13 36  1  0  0  0  0
 13 37  1  0  0  0  0
 14 15  1  0  0  0  0
 14 38  1  0  0  0  0
 14 39  1  0  0  0  0
 15 40  1  0  0  0  0
 15 41  1  0  0  0  0
 16 17  1  0  0  0  0
 16 42  1  0  0  0  0
 16 43  1  0  0  0  0
 17 44  1  0  0  0  0
 17 45  1  0  0  0  0
 18 46  1  0  0  0  0
 18 47  1  0  0  0  0
 18 48  1  0  0  0  0
 19 23  1  0  0  0  0
 19 49  1  0  0  0  0
 19 50  1  0  0  0  0
 20 51  1  0  0  0  0
 20 52  1  0  0  0  0
 20 53  1  0  0  0  0
 21 54  1  0  0  0  0
 21 55  1  0  0  0  0
 21 56  1  0  0  0  0
 22 57  1  0  0  0  0
 22 58  1  0  0  0  0
 22 59  1  0  0  0  0
 23 61  1  0  0  0  0
 23 62  1  0  0  0  0
 24 25  1  0  0  0  0
 25 26  1  0  0  0  0
 25 63  1  0  0  0  0
 25 64  1  0  0  0  0
 26 27  1  0  0  0  0
 26 65  1  0  0  0  0
 26 66  1  0  0  0  0
 28 29  1  0  0  0  0
 28 68  1  0  0  0  0
 28 69  1  0  0  0  0
 29 30  1  0  0  0  0
 29 70  1  0  0  0  0
 29 71  1  0  0  0  0
 30 72  1  0  0  0  0
 30 73  1  0  0  0  0
 31 33  2  0  0  0  0
 31 74  1  0  0  0  0
 32 75  1  0  0  0  0
 33 76  1  0  0  0  0
M  END
> <PUBCHEM_COMPOUND_CID>
10183127

> <PUBCHEM_CONFORMER_RMSD>
1.4

> <PUBCHEM_CONFORMER_DIVERSEORDER>
47
99
76
38
7
112
58
95
31
56
14
25
119
20
34
106
120
116
61
57
15
101
114
121
2
96
11
63
13
81
54
71
77
5
109
108
100
115
45
91
50
103
90
46
24
6
39
9
10
107
68
117
79
110
1
72
28
65
74
85
4
73
70
19
17
87
104
111
55
86
69
94
30
44
105
122
23
35
83
113
97
59
92
41
51
8
118
29
89
102
22
37
62
88
66
49
26
98
12
93
16
60
124
82
43
42
21
123
40
84
48
33
3
36
18
32
67
64
75
27
52
80
53
78

> <PUBCHEM_MMFF94_PARTIAL_CHARGES>
23
1 -0.68
12 0.28
2 -0.43
23 0.28
24 0.66
25 0.06
26 0.06
27 0.57
28 0.3
3 -0.57
30 0.26
31 -0.3
32 0.04
33 0.08
4 -0.57
5 -0.73
6 0.05
60 0.4
67 0.37
7 -0.57
74 0.15
75 0.15
76 0.15

> <PUBCHEM_EFFECTIVE_ROTOR_COUNT>
13.6

> <PUBCHEM_PHARMACOPHORE_FEATURES>
10
1 1 acceptor
1 1 donor
1 3 acceptor
1 4 acceptor
1 5 donor
3 11 20 21 hydrophobe
3 6 7 32 cation
5 6 7 31 32 33 rings
6 8 9 10 12 14 15 rings
6 8 9 11 13 16 17 rings

> <PUBCHEM_HEAVY_ATOM_COUNT>
33

> <PUBCHEM_ATOM_DEF_STEREO_COUNT>
3

> <PUBCHEM_ATOM_UDEF_STEREO_COUNT>
1

> <PUBCHEM_BOND_DEF_STEREO_COUNT>
0

> <PUBCHEM_BOND_UDEF_STEREO_COUNT>
0

> <PUBCHEM_ISOTOPIC_ATOM_COUNT>
0

> <PUBCHEM_COMPONENT_COUNT>
1

> <PUBCHEM_CACTVS_TAUTO_COUNT>
2

> <PUBCHEM_CONFORMER_ID>
009B61D70000002F

> <PUBCHEM_MMFF94_ENERGY>
87.8127

> <PUBCHEM_FEATURE_SELFOVERLAP>
50.759

> <PUBCHEM_SHAPE_FINGERPRINT>
10675989 125 17107041133318155853
10838868 49 17608049227536458770
12156800 1 15022287028774485871
13402501 40 18341897393891125730
14725015 67 18189607405930729075
161222 619 18201163242867499670
20764821 26 18195538201314388158
20775530 9 18045783652417118810
21344244 246 17476630353921051791
21795232 40 17485065725270867360
25265897 201 14711133853580598121
3027735 51 17976807706072992576
35225 105 17045995118277700949
392239 28 18269563732240306178
469060 322 17460060442631702131
4742675 86 17988352694603199890
508706 21 18196659484769775462
6004065 56 18341044203528737559

> <PUBCHEM_SHAPE_MULTIPOLES>
640.7
8.53
6.32
2.18
12.7
0.72
0.26
1.72
-1
-1.95
-1.18
-0.76
-0.26
1.83

> <PUBCHEM_SHAPE_SELFOVERLAP>
1311.486

> <PUBCHEM_SHAPE_VOLUME>
368.8

> <PUBCHEM_COORDINATE_TYPE>
2
5
10

$$$$
