131752119
  -OEChem-02172602513D

 98100  0     1  0  0  0  0  0999 V2000
   11.7788   -1.5086    0.5175 O   0  0  0  0  0  0  0  0  0  0  0  0
  -15.2947    2.1278   -0.2110 O   0  0  0  0  0  0  0  0  0  0  0  0
   11.8111   -0.1866   -0.0441 C   0  0  1  0  0  0  0  0  0  0  0  0
   12.3931   -0.5078    1.3463 C   0  0  2  0  0  0  0  0  0  0  0  0
   12.7516   -0.0756   -1.2592 C   0  0  0  0  0  0  0  0  0  0  0  0
   13.8679   -0.7584    1.5340 C   0  0  0  0  0  0  0  0  0  0  0  0
   14.1201   -0.7481   -0.9713 C   0  0  0  0  0  0  0  0  0  0  0  0
   14.7193   -0.3009    0.3578 C   0  0  0  0  0  0  0  0  0  0  0  0
   11.6173   -0.2607    2.6094 C   0  0  0  0  0  0  0  0  0  0  0  0
   10.5707    0.6124   -0.0919 C   0  0  0  0  0  0  0  0  0  0  0  0
   12.1159   -0.7407   -2.5025 C   0  0  0  0  0  0  0  0  0  0  0  0
   13.0105    1.4097   -1.5884 C   0  0  0  0  0  0  0  0  0  0  0  0
    9.3255    0.1089   -0.0392 C   0  0  0  0  0  0  0  0  0  0  0  0
    8.0729    0.8610   -0.0917 C   0  0  0  0  0  0  0  0  0  0  0  0
    8.1582    2.3592   -0.2553 C   0  0  0  0  0  0  0  0  0  0  0  0
    6.8547    0.2813   -0.0329 C   0  0  0  0  0  0  0  0  0  0  0  0
    5.5538    0.9179   -0.0754 C   0  0  0  0  0  0  0  0  0  0  0  0
  -12.8239   -0.7127   -0.7007 C   0  0  0  0  0  0  0  0  0  0  0  0
    4.3885    0.2528   -0.0098 C   0  0  0  0  0  0  0  0  0  0  0  0
  -14.1758    0.0104   -0.4625 C   0  0  0  0  0  0  0  0  0  0  0  0
  -14.0256    1.5232   -0.4407 C   0  0  2  0  0  0  0  0  0  0  0  0
  -11.6924   -0.1000    0.1579 C   0  0  0  0  0  0  0  0  0  0  0  0
  -13.0831    1.9330    0.6829 C   0  0  0  0  0  0  0  0  0  0  0  0
  -11.8321    1.0870    0.8003 C   0  0  0  0  0  0  0  0  0  0  0  0
  -12.4546   -0.6040   -2.1978 C   0  0  0  0  0  0  0  0  0  0  0  0
  -13.0710   -2.2029   -0.3613 C   0  0  0  0  0  0  0  0  0  0  0  0
    3.0469    0.8359   -0.0530 C   0  0  0  0  0  0  0  0  0  0  0  0
  -10.4590   -0.8678    0.2111 C   0  0  0  0  0  0  0  0  0  0  0  0
  -10.8020    1.7324    1.6982 C   0  0  0  0  0  0  0  0  0  0  0  0
    2.9355    2.3344   -0.1848 C   0  0  0  0  0  0  0  0  0  0  0  0
   -9.2404   -0.3067    0.1524 C   0  0  0  0  0  0  0  0  0  0  0  0
    1.9815    0.0108    0.0260 C   0  0  0  0  0  0  0  0  0  0  0  0
   -7.9596   -1.0131    0.1940 C   0  0  0  0  0  0  0  0  0  0  0  0
    0.5824    0.3805    0.0021 C   0  0  0  0  0  0  0  0  0  0  0  0
   -7.9996   -2.5195    0.3136 C   0  0  0  0  0  0  0  0  0  0  0  0
   -6.7552   -0.4046    0.1316 C   0  0  0  0  0  0  0  0  0  0  0  0
   -0.4788   -0.4406    0.0806 C   0  0  0  0  0  0  0  0  0  0  0  0
   -5.4369   -1.0084    0.1645 C   0  0  0  0  0  0  0  0  0  0  0  0
   -1.8731   -0.0421    0.0541 C   0  0  0  0  0  0  0  0  0  0  0  0
   -4.3055   -0.2865    0.0940 C   0  0  0  0  0  0  0  0  0  0  0  0
   -2.9549   -0.8440    0.1312 C   0  0  0  0  0  0  0  0  0  0  0  0
   -2.9381   -2.3384    0.3141 C   0  0  0  0  0  0  0  0  0  0  0  0
   14.0267   -1.8307    1.7063 H   0  0  0  0  0  0  0  0  0  0  0  0
   14.2242   -0.2459    2.4360 H   0  0  0  0  0  0  0  0  0  0  0  0
   14.8277   -0.5258   -1.7802 H   0  0  0  0  0  0  0  0  0  0  0  0
   14.0072   -1.8405   -0.9587 H   0  0  0  0  0  0  0  0  0  0  0  0
   15.7274   -0.7188    0.4641 H   0  0  0  0  0  0  0  0  0  0  0  0
   14.8351    0.7877    0.3827 H   0  0  0  0  0  0  0  0  0  0  0  0
   10.5454   -0.4474    2.4962 H   0  0  0  0  0  0  0  0  0  0  0  0
   11.7536    0.7756    2.9343 H   0  0  0  0  0  0  0  0  0  0  0  0
   11.9717   -0.9177    3.4111 H   0  0  0  0  0  0  0  0  0  0  0  0
   10.7091    1.6886   -0.1352 H   0  0  0  0  0  0  0  0  0  0  0  0
   12.7864   -0.6827   -3.3671 H   0  0  0  0  0  0  0  0  0  0  0  0
   11.8999   -1.7981   -2.3130 H   0  0  0  0  0  0  0  0  0  0  0  0
   11.1713   -0.2595   -2.7789 H   0  0  0  0  0  0  0  0  0  0  0  0
   13.8046    1.5190   -2.3361 H   0  0  0  0  0  0  0  0  0  0  0  0
   12.1197    1.8926   -2.0067 H   0  0  0  0  0  0  0  0  0  0  0  0
   13.2988    1.9845   -0.7020 H   0  0  0  0  0  0  0  0  0  0  0  0
    9.2114   -0.9719    0.0297 H   0  0  0  0  0  0  0  0  0  0  0  0
    8.6321    2.8039    0.6277 H   0  0  0  0  0  0  0  0  0  0  0  0
    8.7695    2.6063   -1.1320 H   0  0  0  0  0  0  0  0  0  0  0  0
    7.2195    2.8906   -0.4044 H   0  0  0  0  0  0  0  0  0  0  0  0
    6.8200   -0.8041    0.0684 H   0  0  0  0  0  0  0  0  0  0  0  0
    5.5175    1.9956   -0.1565 H   0  0  0  0  0  0  0  0  0  0  0  0
  -14.9130   -0.2747   -1.2251 H   0  0  0  0  0  0  0  0  0  0  0  0
  -14.6180   -0.3120    0.4918 H   0  0  0  0  0  0  0  0  0  0  0  0
    4.4267   -0.8329    0.0789 H   0  0  0  0  0  0  0  0  0  0  0  0
  -13.6577    1.8868   -1.4063 H   0  0  0  0  0  0  0  0  0  0  0  0
  -13.6151    1.9074    1.6437 H   0  0  0  0  0  0  0  0  0  0  0  0
  -12.8058    2.9838    0.5253 H   0  0  0  0  0  0  0  0  0  0  0  0
  -13.2714   -0.9641   -2.8337 H   0  0  0  0  0  0  0  0  0  0  0  0
  -11.5695   -1.2051   -2.4370 H   0  0  0  0  0  0  0  0  0  0  0  0
  -12.2338    0.4285   -2.4897 H   0  0  0  0  0  0  0  0  0  0  0  0
  -13.9780   -2.5708   -0.8564 H   0  0  0  0  0  0  0  0  0  0  0  0
  -13.2000   -2.3504    0.7172 H   0  0  0  0  0  0  0  0  0  0  0  0
  -12.2528   -2.8482   -0.6989 H   0  0  0  0  0  0  0  0  0  0  0  0
  -10.5596   -1.9387    0.3431 H   0  0  0  0  0  0  0  0  0  0  0  0
  -10.2242    2.4813    1.1477 H   0  0  0  0  0  0  0  0  0  0  0  0
  -10.1282    1.0172    2.1764 H   0  0  0  0  0  0  0  0  0  0  0  0
  -11.3014    2.2471    2.5282 H   0  0  0  0  0  0  0  0  0  0  0  0
  -15.1615    3.0910   -0.1947 H   0  0  0  0  0  0  0  0  0  0  0  0
    3.4187    2.6724   -1.1086 H   0  0  0  0  0  0  0  0  0  0  0  0
    3.4212    2.8283    0.6646 H   0  0  0  0  0  0  0  0  0  0  0  0
    1.9137    2.7148   -0.2174 H   0  0  0  0  0  0  0  0  0  0  0  0
   -9.1401    0.7636   -0.0131 H   0  0  0  0  0  0  0  0  0  0  0  0
    2.1529   -1.0618    0.1194 H   0  0  0  0  0  0  0  0  0  0  0  0
    0.3583    1.4392   -0.0881 H   0  0  0  0  0  0  0  0  0  0  0  0
   -8.5771   -2.9442   -0.5167 H   0  0  0  0  0  0  0  0  0  0  0  0
   -8.4888   -2.8057    1.2524 H   0  0  0  0  0  0  0  0  0  0  0  0
   -7.0456   -3.0434    0.2998 H   0  0  0  0  0  0  0  0  0  0  0  0
   -6.7507    0.6828    0.0455 H   0  0  0  0  0  0  0  0  0  0  0  0
   -0.2732   -1.5034    0.1700 H   0  0  0  0  0  0  0  0  0  0  0  0
   -5.3833   -2.0823    0.2541 H   0  0  0  0  0  0  0  0  0  0  0  0
   -2.0304    1.0313   -0.0537 H   0  0  0  0  0  0  0  0  0  0  0  0
   -4.3730    0.7964    0.0017 H   0  0  0  0  0  0  0  0  0  0  0  0
   -3.4129   -2.8473   -0.5327 H   0  0  0  0  0  0  0  0  0  0  0  0
   -3.4333   -2.6331    1.2466 H   0  0  0  0  0  0  0  0  0  0  0  0
   -1.9270   -2.7483    0.3768 H   0  0  0  0  0  0  0  0  0  0  0  0
  1  3  1  0  0  0  0
  1  4  1  0  0  0  0
  2 21  1  0  0  0  0
  2 81  1  0  0  0  0
  3  4  1  0  0  0  0
  3  5  1  0  0  0  0
  3 10  1  0  0  0  0
  4  6  1  0  0  0  0
  4  9  1  0  0  0  0
  5  7  1  0  0  0  0
  5 11  1  0  0  0  0
  5 12  1  0  0  0  0
  6  8  1  0  0  0  0
  6 43  1  0  0  0  0
  6 44  1  0  0  0  0
  7  8  1  0  0  0  0
  7 45  1  0  0  0  0
  7 46  1  0  0  0  0
  8 47  1  0  0  0  0
  8 48  1  0  0  0  0
  9 49  1  0  0  0  0
  9 50  1  0  0  0  0
  9 51  1  0  0  0  0
 10 13  2  0  0  0  0
 10 52  1  0  0  0  0
 11 53  1  0  0  0  0
 11 54  1  0  0  0  0
 11 55  1  0  0  0  0
 12 56  1  0  0  0  0
 12 57  1  0  0  0  0
 12 58  1  0  0  0  0
 13 14  1  0  0  0  0
 13 59  1  0  0  0  0
 14 15  1  0  0  0  0
 14 16  2  0  0  0  0
 15 60  1  0  0  0  0
 15 61  1  0  0  0  0
 15 62  1  0  0  0  0
 16 17  1  0  0  0  0
 16 63  1  0  0  0  0
 17 19  2  0  0  0  0
 17 64  1  0  0  0  0
 18 20  1  0  0  0  0
 18 22  1  0  0  0  0
 18 25  1  0  0  0  0
 18 26  1  0  0  0  0
 19 27  1  0  0  0  0
 19 67  1  0  0  0  0
 20 21  1  0  0  0  0
 20 65  1  0  0  0  0
 20 66  1  0  0  0  0
 21 23  1  0  0  0  0
 21 68  1  0  0  0  0
 22 24  2  0  0  0  0
 22 28  1  0  0  0  0
 23 24  1  0  0  0  0
 23 69  1  0  0  0  0
 23 70  1  0  0  0  0
 24 29  1  0  0  0  0
 25 71  1  0  0  0  0
 25 72  1  0  0  0  0
 25 73  1  0  0  0  0
 26 74  1  0  0  0  0
 26 75  1  0  0  0  0
 26 76  1  0  0  0  0
 27 30  1  0  0  0  0
 27 32  2  0  0  0  0
 28 31  2  0  0  0  0
 28 77  1  0  0  0  0
 29 78  1  0  0  0  0
 29 79  1  0  0  0  0
 29 80  1  0  0  0  0
 30 82  1  0  0  0  0
 30 83  1  0  0  0  0
 30 84  1  0  0  0  0
 31 33  1  0  0  0  0
 31 85  1  0  0  0  0
 32 34  1  0  0  0  0
 32 86  1  0  0  0  0
 33 35  1  0  0  0  0
 33 36  2  0  0  0  0
 34 37  2  0  0  0  0
 34 87  1  0  0  0  0
 35 88  1  0  0  0  0
 35 89  1  0  0  0  0
 35 90  1  0  0  0  0
 36 38  1  0  0  0  0
 36 91  1  0  0  0  0
 37 39  1  0  0  0  0
 37 92  1  0  0  0  0
 38 40  2  0  0  0  0
 38 93  1  0  0  0  0
 39 41  2  0  0  0  0
 39 94  1  0  0  0  0
 40 41  1  0  0  0  0
 40 95  1  0  0  0  0
 41 42  1  0  0  0  0
 42 96  1  0  0  0  0
 42 97  1  0  0  0  0
 42 98  1  0  0  0  0
M  END
> <PUBCHEM_COMPOUND_CID>
131752119

> <PUBCHEM_CONFORMER_RMSD>
1.4

> <PUBCHEM_CONFORMER_DIVERSEORDER>
6
14
68
72
57
3
18
77
7
21
62
53
44
16
71
13
1
59
23
64
42
63
54
79
36
60
65
43
49
45
41
9
35
52
12
20
47
15
75
26
69
67
38
40
32
39
61
55
17
28
78
56
70
58
25
27
4
30
22
2
33
29
31
19
66
5
24
8
48
34
74
73
46
51
76
10
37
11
50

> <PUBCHEM_MMFF94_PARTIAL_CHARGES>
50
1 -0.3
10 -0.19
13 -0.15
14 -0.14
15 0.14
16 -0.15
17 -0.15
18 0.14
19 -0.15
2 -0.68
21 0.28
22 -0.14
23 0.14
24 -0.28
27 -0.14
28 -0.15
29 0.14
3 0.09
30 0.14
31 -0.15
32 -0.15
33 -0.14
34 -0.15
35 0.14
36 -0.15
37 -0.15
38 -0.15
39 -0.15
4 -0.04
40 -0.15
41 -0.14
42 0.14
5 0.09
52 0.15
59 0.15
6 0.09
63 0.15
64 0.15
67 0.15
77 0.15
81 0.4
85 0.15
86 0.15
87 0.15
9 0.09
91 0.15
92 0.15
93 0.15
94 0.15
95 0.15

> <PUBCHEM_EFFECTIVE_ROTOR_COUNT>
11.8

> <PUBCHEM_PHARMACOPHORE_FEATURES>
11
1 1 acceptor
1 15 hydrophobe
1 2 acceptor
1 2 donor
1 30 hydrophobe
1 35 hydrophobe
1 42 hydrophobe
3 18 25 26 hydrophobe
3 5 11 12 hydrophobe
6 18 20 21 22 23 24 rings
7 1 3 4 5 6 7 8 rings

> <PUBCHEM_HEAVY_ATOM_COUNT>
42

> <PUBCHEM_ATOM_DEF_STEREO_COUNT>
0

> <PUBCHEM_ATOM_UDEF_STEREO_COUNT>
3

> <PUBCHEM_BOND_DEF_STEREO_COUNT>
9

> <PUBCHEM_BOND_UDEF_STEREO_COUNT>
0

> <PUBCHEM_ISOTOPIC_ATOM_COUNT>
0

> <PUBCHEM_COMPONENT_COUNT>
1

> <PUBCHEM_CACTVS_TAUTO_COUNT>
437

> <PUBCHEM_CONFORMER_ID>
07DA60B700000006

> <PUBCHEM_MMFF94_ENERGY>
111.2805

> <PUBCHEM_FEATURE_SELFOVERLAP>
55.825

> <PUBCHEM_SHAPE_FINGERPRINT>
12013929 2 18343303686347741035
12013929 94 8574716797891204621
12559415 90 18273214209433831953
14251920 1 18410573989446424934
14251920 17 10087642602676782738
15061470 23 18412262865741585769
15343295 29 18408037404655412237
16728433 110 16702301270381274184
20580484 106 17846498132841551153
21057603 130 11024104340525672057
232437 2 18260547845205442602
23581129 1 18409448093855778542
3092352 35 18409449224666930579
3991529 128 12179843905649237370
57303763 39 11602829017072213353
57828716 42 9943803392378181829
9663363 56 16558751217284168304

> <PUBCHEM_SHAPE_MULTIPOLES>
852.6
100.08
1.93
1.41
8.02
0.25
0.08
3.86
7.11
4.77
-0.08
-3.91
-0.11
-2.43

> <PUBCHEM_SHAPE_SELFOVERLAP>
1740.483

> <PUBCHEM_SHAPE_VOLUME>
494.5

> <PUBCHEM_COORDINATE_TYPE>
2
5
10

$$$$
