131752126
  -OEChem-02172602513D

 43 46  0     1  0  0  0  0  0999 V2000
    3.6577    0.4344   -0.3131 O   0  0  0  0  0  0  0  0  0  0  0  0
   -3.7752   -0.9539   -0.6450 O   0  0  0  0  0  0  0  0  0  0  0  0
    3.4434    3.1100   -0.4186 O   0  0  0  0  0  0  0  0  0  0  0  0
   -4.8281    0.8702    0.2446 O   0  0  0  0  0  0  0  0  0  0  0  0
   -2.5035    0.7260    0.2907 N   0  0  0  0  0  0  0  0  0  0  0  0
   -1.2785   -0.0217   -0.0605 C   0  0  1  0  0  0  0  0  0  0  0  0
   -0.0096    0.8242   -0.0938 C   0  0  0  0  0  0  0  0  0  0  0  0
   -1.0527   -1.2213    0.8766 C   0  0  0  0  0  0  0  0  0  0  0  0
   -0.0812    2.2297   -0.0534 C   0  0  0  0  0  0  0  0  0  0  0  0
    1.2399    0.1621   -0.1886 C   0  0  0  0  0  0  0  0  0  0  0  0
   -2.3334    2.0133    0.9608 C   0  0  0  0  0  0  0  0  0  0  0  0
   -1.4102    2.9080    0.1404 C   0  0  0  0  0  0  0  0  0  0  0  0
    0.1609   -2.0068    0.4269 C   0  0  0  0  0  0  0  0  0  0  0  0
    1.2792   -1.3188   -0.1055 C   0  0  0  0  0  0  0  0  0  0  0  0
    2.3945    0.9547   -0.3007 C   0  0  0  0  0  0  0  0  0  0  0  0
    1.0851    2.9854   -0.1871 C   0  0  0  0  0  0  0  0  0  0  0  0
    2.3160    2.3494   -0.3142 C   0  0  0  0  0  0  0  0  0  0  0  0
   -3.7910    0.2626   -0.0139 C   0  0  0  0  0  0  0  0  0  0  0  0
    0.1786   -3.4018    0.5678 C   0  0  0  0  0  0  0  0  0  0  0  0
    2.3808   -2.0852   -0.5227 C   0  0  0  0  0  0  0  0  0  0  0  0
    1.2879   -4.1338    0.1555 C   0  0  0  0  0  0  0  0  0  0  0  0
    2.3841   -3.4773   -0.3942 C   0  0  0  0  0  0  0  0  0  0  0  0
    4.3068    0.2896    0.9467 C   0  0  0  0  0  0  0  0  0  0  0  0
   -5.0516   -1.4988   -0.9985 C   0  0  0  0  0  0  0  0  0  0  0  0
   -1.4297   -0.3935   -1.0843 H   0  0  0  0  0  0  0  0  0  0  0  0
   -1.9351   -1.8710    0.8824 H   0  0  0  0  0  0  0  0  0  0  0  0
   -0.8941   -0.8870    1.9104 H   0  0  0  0  0  0  0  0  0  0  0  0
   -1.9150    1.8132    1.9550 H   0  0  0  0  0  0  0  0  0  0  0  0
   -3.2992    2.5082    1.1031 H   0  0  0  0  0  0  0  0  0  0  0  0
   -1.2793    3.8608    0.6660 H   0  0  0  0  0  0  0  0  0  0  0  0
   -1.8475    3.1165   -0.8433 H   0  0  0  0  0  0  0  0  0  0  0  0
    1.0284    4.0713   -0.1737 H   0  0  0  0  0  0  0  0  0  0  0  0
   -0.6750   -3.9236    0.9925 H   0  0  0  0  0  0  0  0  0  0  0  0
    3.2458   -1.6536   -1.0128 H   0  0  0  0  0  0  0  0  0  0  0  0
    1.2951   -5.2150    0.2565 H   0  0  0  0  0  0  0  0  0  0  0  0
    3.2431   -4.0493   -0.7338 H   0  0  0  0  0  0  0  0  0  0  0  0
    3.1964    4.0505   -0.4031 H   0  0  0  0  0  0  0  0  0  0  0  0
    5.2215   -0.2904    0.7952 H   0  0  0  0  0  0  0  0  0  0  0  0
    3.6721   -0.2425    1.6626 H   0  0  0  0  0  0  0  0  0  0  0  0
    4.5806    1.2690    1.3507 H   0  0  0  0  0  0  0  0  0  0  0  0
   -4.8851   -2.4615   -1.4891 H   0  0  0  0  0  0  0  0  0  0  0  0
   -5.5668   -0.8328   -1.6971 H   0  0  0  0  0  0  0  0  0  0  0  0
   -5.6550   -1.6618   -0.1006 H   0  0  0  0  0  0  0  0  0  0  0  0
  1 15  1  0  0  0  0
  1 23  1  0  0  0  0
  2 18  1  0  0  0  0
  2 24  1  0  0  0  0
  3 17  1  0  0  0  0
  3 37  1  0  0  0  0
  4 18  2  0  0  0  0
  5  6  1  0  0  0  0
  5 11  1  0  0  0  0
  5 18  1  0  0  0  0
  6  7  1  0  0  0  0
  6  8  1  0  0  0  0
  6 25  1  0  0  0  0
  7  9  1  0  0  0  0
  7 10  2  0  0  0  0
  8 13  1  0  0  0  0
  8 26  1  0  0  0  0
  8 27  1  0  0  0  0
  9 12  1  0  0  0  0
  9 16  2  0  0  0  0
 10 14  1  0  0  0  0
 10 15  1  0  0  0  0
 11 12  1  0  0  0  0
 11 28  1  0  0  0  0
 11 29  1  0  0  0  0
 12 30  1  0  0  0  0
 12 31  1  0  0  0  0
 13 14  1  0  0  0  0
 13 19  2  0  0  0  0
 14 20  2  0  0  0  0
 15 17  2  0  0  0  0
 16 17  1  0  0  0  0
 16 32  1  0  0  0  0
 19 21  1  0  0  0  0
 19 33  1  0  0  0  0
 20 22  1  0  0  0  0
 20 34  1  0  0  0  0
 21 22  2  0  0  0  0
 21 35  1  0  0  0  0
 22 36  1  0  0  0  0
 23 38  1  0  0  0  0
 23 39  1  0  0  0  0
 23 40  1  0  0  0  0
 24 41  1  0  0  0  0
 24 42  1  0  0  0  0
 24 43  1  0  0  0  0
M  END
> <PUBCHEM_COMPOUND_CID>
131752126

> <PUBCHEM_CONFORMER_RMSD>
0.6

> <PUBCHEM_CONFORMER_DIVERSEORDER>
1
5
4
8
6
7
3
2

> <PUBCHEM_MMFF94_PARTIAL_CHARGES>
28
1 -0.36
11 0.3
12 0.14
13 -0.14
15 0.08
16 -0.15
17 0.08
18 0.78
19 -0.15
2 -0.43
20 -0.15
21 -0.15
22 -0.15
23 0.28
24 0.28
3 -0.53
32 0.15
33 0.15
34 0.15
35 0.15
36 0.15
37 0.45
4 -0.57
5 -0.66
6 0.44
7 -0.14
8 0.14
9 -0.14

> <PUBCHEM_EFFECTIVE_ROTOR_COUNT>
3.8

> <PUBCHEM_PHARMACOPHORE_FEATURES>
7
1 1 acceptor
1 3 donor
1 4 acceptor
6 13 14 19 20 21 22 rings
6 5 6 7 9 11 12 rings
6 6 7 8 10 13 14 rings
6 7 9 10 15 16 17 rings

> <PUBCHEM_HEAVY_ATOM_COUNT>
24

> <PUBCHEM_ATOM_DEF_STEREO_COUNT>
0

> <PUBCHEM_ATOM_UDEF_STEREO_COUNT>
1

> <PUBCHEM_BOND_DEF_STEREO_COUNT>
0

> <PUBCHEM_BOND_UDEF_STEREO_COUNT>
0

> <PUBCHEM_ISOTOPIC_ATOM_COUNT>
0

> <PUBCHEM_COMPONENT_COUNT>
1

> <PUBCHEM_CACTVS_TAUTO_COUNT>
44

> <PUBCHEM_CONFORMER_ID>
07DA60BE00000001

> <PUBCHEM_MMFF94_ENERGY>
83.1066

> <PUBCHEM_FEATURE_SELFOVERLAP>
35.618

> <PUBCHEM_SHAPE_FINGERPRINT>
10411042 1 17977388226779865371
10693767 8 18201999910844804190
10906281 52 18336280010639054304
10967382 1 18337678520551469786
1100329 8 18265888245541860570
11135609 187 18193835062604683229
11578080 2 17244138224403808948
12403260 363 18409724071517190432
12553582 1 17761216518407704155
12788726 201 17693088982659719886
12839892 36 18266721533595498602
13140716 1 18266177416920682728
138480 1 18193562164175996044
13911987 19 18190746534146745061
14178342 30 18196646303125020504
14223421 5 18122058698255076224
14787075 74 17845925359591497256
14790565 3 18337966699740923901
14844126 61 16748457350000684419
16728300 4 17389626780318869490
16945 1 18337969938393463856
17349148 13 18335132102939589216
17492 89 18340487764609008927
19591789 44 18122066661182634219
19930381 70 18409730642595340843
20028762 73 18272364330053463790
20691752 17 17824275799324895136
20775438 99 17398901096237202405
20905425 154 18198907998437301900
21421861 104 18190462658251303593
21634736 98 18267869389217103823
221490 88 18336275548315707419
23184049 29 17834677093545609878
2334 1 17905898328728627152
23558518 356 18267875982034140129
23559900 14 18267017263146606120
23566358 2 18192421987998464997
2748010 2 17977401738820279368
3091708 16 8897986401205185082
34934 24 18342451496670735925
352729 6 18193286401527005162
4409770 3 17616820271813536318
474 4 18410013238737805467
484985 159 13995010914298861722
484989 97 17831581247002274287
59755656 215 18337954472057813284
6443956 14 18191871119508329348
7364860 26 18339364033106282082
7832392 63 17834397817565696593
9709674 26 18336552629319217755
9981440 41 18265614458113505208

> <PUBCHEM_SHAPE_MULTIPOLES>
465.45
7.09
4.87
0.84
6.56
1.95
0.06
0.14
-0.78
-3.25
-0.09
0.13
0.11
-0.71

> <PUBCHEM_SHAPE_SELFOVERLAP>
1028.357

> <PUBCHEM_SHAPE_VOLUME>
248.2

> <PUBCHEM_COORDINATE_TYPE>
2
5
10

$$$$
