10091371
  -OEChem-02172602513D

 53 56  0     1  0  0  0  0  0999 V2000
   -3.7581    0.0885    1.1747 O   0  0  0  0  0  0  0  0  0  0  0  0
   -2.4103    0.8917   -1.3884 O   0  0  0  0  0  0  0  0  0  0  0  0
   -4.4999   -0.2035   -1.0358 O   0  0  0  0  0  0  0  0  0  0  0  0
   -0.3731   -0.7508    0.1485 O   0  0  0  0  0  0  0  0  0  0  0  0
   -0.0534    3.3695    0.7355 O   0  5  0  0  0  0  0  0  0  0  0  0
    0.3648    2.7967   -0.3237 N   0  3  0  0  0  0  0  0  0  0  0  0
   -2.7354   -0.5841    0.4409 C   0  0  2  0  0  0  0  0  0  0  0  0
   -1.4069    0.1090    0.6129 C   0  0  2  0  0  0  0  0  0  0  0  0
   -3.0819   -0.3202   -1.0047 C   0  0  2  0  0  0  0  0  0  0  0  0
   -1.5697    1.3105   -0.3080 C   0  0  1  0  0  0  0  0  0  0  0  0
   -4.8959    0.1157    0.3040 C   0  0  0  0  0  0  0  0  0  0  0  0
   -0.2892    1.8121   -0.8900 C   0  0  0  0  0  0  0  0  0  0  0  0
   -5.9067   -0.9250    0.7714 C   0  0  0  0  0  0  0  0  0  0  0  0
   -5.4954    1.5153    0.3279 C   0  0  0  0  0  0  0  0  0  0  0  0
   -0.2114   -1.8763    0.9999 C   0  0  0  0  0  0  0  0  0  0  0  0
    0.8884   -2.7436    0.4617 C   0  0  0  0  0  0  0  0  0  0  0  0
    1.6257    3.2760   -0.9129 C   0  0  0  0  0  0  0  0  0  0  0  0
    2.7942    2.4969   -0.3905 C   0  0  0  0  0  0  0  0  0  0  0  0
    0.5870   -3.7553   -0.4432 C   0  0  0  0  0  0  0  0  0  0  0  0
    2.1991   -2.5281    0.8726 C   0  0  0  0  0  0  0  0  0  0  0  0
    1.6092   -4.5616   -0.9436 C   0  0  0  0  0  0  0  0  0  0  0  0
    3.2213   -3.3345    0.3723 C   0  0  0  0  0  0  0  0  0  0  0  0
    3.4552    2.9287    0.7553 C   0  0  0  0  0  0  0  0  0  0  0  0
    3.2103    1.3472   -1.0546 C   0  0  0  0  0  0  0  0  0  0  0  0
    2.9265   -4.3512   -0.5359 C   0  0  0  0  0  0  0  0  0  0  0  0
    4.5429    2.2036    1.2418 C   0  0  0  0  0  0  0  0  0  0  0  0
    4.2982    0.6222   -0.5681 C   0  0  0  0  0  0  0  0  0  0  0  0
    4.9645    1.0503    0.5801 C   0  0  0  0  0  0  0  0  0  0  0  0
   -2.8127   -1.6445    0.6802 H   0  0  0  0  0  0  0  0  0  0  0  0
   -1.1965    0.4344    1.6381 H   0  0  0  0  0  0  0  0  0  0  0  0
   -2.7525   -1.1146   -1.6813 H   0  0  0  0  0  0  0  0  0  0  0  0
   -2.1049    2.1155    0.2078 H   0  0  0  0  0  0  0  0  0  0  0  0
    0.1395    1.3317   -1.7821 H   0  0  0  0  0  0  0  0  0  0  0  0
   -6.2208   -0.7387    1.8038 H   0  0  0  0  0  0  0  0  0  0  0  0
   -5.4674   -1.9288    0.7431 H   0  0  0  0  0  0  0  0  0  0  0  0
   -6.7893   -0.9416    0.1234 H   0  0  0  0  0  0  0  0  0  0  0  0
   -6.3597    1.5897   -0.3402 H   0  0  0  0  0  0  0  0  0  0  0  0
   -4.7605    2.2538   -0.0119 H   0  0  0  0  0  0  0  0  0  0  0  0
   -5.7965    1.8024    1.3408 H   0  0  0  0  0  0  0  0  0  0  0  0
   -1.1113   -2.4903    1.0804 H   0  0  0  0  0  0  0  0  0  0  0  0
    0.0418   -1.5406    2.0138 H   0  0  0  0  0  0  0  0  0  0  0  0
    1.7250    4.3425   -0.6760 H   0  0  0  0  0  0  0  0  0  0  0  0
    1.5532    3.2079   -2.0050 H   0  0  0  0  0  0  0  0  0  0  0  0
   -0.4352   -3.9260   -0.7699 H   0  0  0  0  0  0  0  0  0  0  0  0
    2.4408   -1.7366    1.5767 H   0  0  0  0  0  0  0  0  0  0  0  0
    1.3797   -5.3527   -1.6516 H   0  0  0  0  0  0  0  0  0  0  0  0
    4.2472   -3.1691    0.6884 H   0  0  0  0  0  0  0  0  0  0  0  0
    3.1347    3.8246    1.2800 H   0  0  0  0  0  0  0  0  0  0  0  0
    2.7007    1.0031   -1.9502 H   0  0  0  0  0  0  0  0  0  0  0  0
    3.7225   -4.9785   -0.9262 H   0  0  0  0  0  0  0  0  0  0  0  0
    5.0612    2.5365    2.1362 H   0  0  0  0  0  0  0  0  0  0  0  0
    4.6256   -0.2765   -1.0827 H   0  0  0  0  0  0  0  0  0  0  0  0
    5.8107    0.4849    0.9594 H   0  0  0  0  0  0  0  0  0  0  0  0
  1  7  1  0  0  0  0
  1 11  1  0  0  0  0
  2  9  1  0  0  0  0
  2 10  1  0  0  0  0
  3  9  1  0  0  0  0
  3 11  1  0  0  0  0
  4  8  1  0  0  0  0
  4 15  1  0  0  0  0
  5  6  1  0  0  0  0
  6 12  2  0  0  0  0
  6 17  1  0  0  0  0
  7  8  1  0  0  0  0
  7  9  1  0  0  0  0
  7 29  1  0  0  0  0
  8 10  1  0  0  0  0
  8 30  1  0  0  0  0
  9 31  1  0  0  0  0
 10 12  1  0  0  0  0
 10 32  1  0  0  0  0
 11 13  1  0  0  0  0
 11 14  1  0  0  0  0
 12 33  1  0  0  0  0
 13 34  1  0  0  0  0
 13 35  1  0  0  0  0
 13 36  1  0  0  0  0
 14 37  1  0  0  0  0
 14 38  1  0  0  0  0
 14 39  1  0  0  0  0
 15 16  1  0  0  0  0
 15 40  1  0  0  0  0
 15 41  1  0  0  0  0
 16 19  2  0  0  0  0
 16 20  1  0  0  0  0
 17 18  1  0  0  0  0
 17 42  1  0  0  0  0
 17 43  1  0  0  0  0
 18 23  2  0  0  0  0
 18 24  1  0  0  0  0
 19 21  1  0  0  0  0
 19 44  1  0  0  0  0
 20 22  2  0  0  0  0
 20 45  1  0  0  0  0
 21 25  2  0  0  0  0
 21 46  1  0  0  0  0
 22 25  1  0  0  0  0
 22 47  1  0  0  0  0
 23 26  1  0  0  0  0
 23 48  1  0  0  0  0
 24 27  2  0  0  0  0
 24 49  1  0  0  0  0
 25 50  1  0  0  0  0
 26 28  2  0  0  0  0
 26 51  1  0  0  0  0
 27 28  1  0  0  0  0
 27 52  1  0  0  0  0
 28 53  1  0  0  0  0
M  CHG  2   5  -1   6   1
M  END
> <PUBCHEM_COMPOUND_CID>
10091371

> <PUBCHEM_CONFORMER_RMSD>
0.8

> <PUBCHEM_CONFORMER_DIVERSEORDER>
1
14
56
25
24
22
70
63
58
33
9
30
61
50
65
66
49
28
4
74
12
45
43
26
16
57
67
71
10
47
53
27
48
72
6
60
31
36
52
8
41
40
55
44
38
42
39
54
46
34
68
35
2
5
11
62
19
3
20
37
17
69
51
23
18
13
29
73
32
64
7
15
21
59
75

> <PUBCHEM_MMFF94_PARTIAL_CHARGES>
37
1 -0.56
10 0.34
11 0.56
12 -0.12
15 0.42
16 -0.14
17 0.24
18 -0.14
19 -0.15
2 -0.56
20 -0.15
21 -0.15
22 -0.15
23 -0.15
24 -0.15
25 -0.15
26 -0.15
27 -0.15
28 -0.15
3 -0.56
33 0.06
4 -0.56
44 0.15
45 0.15
46 0.15
47 0.15
48 0.15
49 0.15
5 -0.63
50 0.15
51 0.15
52 0.15
53 0.15
6 0.53
7 0.28
8 0.28
9 0.56

> <PUBCHEM_EFFECTIVE_ROTOR_COUNT>
7.2

> <PUBCHEM_PHARMACOPHORE_FEATURES>
10
1 1 acceptor
1 2 acceptor
1 3 acceptor
1 4 acceptor
1 5 anion
3 11 13 14 hydrophobe
5 1 3 7 9 11 rings
5 2 7 8 9 10 rings
6 16 19 20 21 22 25 rings
6 18 23 24 26 27 28 rings

> <PUBCHEM_HEAVY_ATOM_COUNT>
28

> <PUBCHEM_ATOM_DEF_STEREO_COUNT>
4

> <PUBCHEM_ATOM_UDEF_STEREO_COUNT>
0

> <PUBCHEM_BOND_DEF_STEREO_COUNT>
1

> <PUBCHEM_BOND_UDEF_STEREO_COUNT>
0

> <PUBCHEM_ISOTOPIC_ATOM_COUNT>
0

> <PUBCHEM_COMPONENT_COUNT>
1

> <PUBCHEM_CACTVS_TAUTO_COUNT>
1

> <PUBCHEM_CONFORMER_ID>
0099FB6B00000001

> <PUBCHEM_MMFF94_ENERGY>
81.7294

> <PUBCHEM_FEATURE_SELFOVERLAP>
51.491

> <PUBCHEM_SHAPE_FINGERPRINT>
11014199 57 17835807396068542778
11445158 3 17389105852351800501
114674 6 18411987953569426838
11578080 2 16227427605033711015
12160290 23 17107604581640003763
12592029 89 18335144240876032809
12788726 201 17322116620302316923
13402501 40 18334016086459304806
1361 2 18410854399314002947
13692114 37 18050845826086294595
138480 1 18193839245622741542
14028597 1 17774181088134279937
14784336 7 17986663973576136961
15876981 60 17472155977055523886
16067690 210 16271665454248978859
161222 619 18261971724688869043
16728300 4 17606932076805195090
17913733 40 18269010820052737139
1813 80 17984149162808188903
19591789 44 17976543033092480131
1979834 28 18410289216293586112
19930381 70 18410009901653919222
20028762 73 18053104209826147855
20101258 96 17762070838736757979
20511986 3 17560788970384393453
20775438 99 17469277532490433325
21344244 246 18338502136487015559
22113638 7 18263919020369611460
23559900 14 18194111915964195731
3027735 51 18410294670654787936
3298306 158 18261672661693778519
38695281 34 18340201985874165983
4017518 198 18270124647143912686
4144715 1 18262249807579938209
5265222 85 18117009981722045684
5309563 4 18265897960715880982
532947 4 18409170999977961363
5385378 56 18339654386334392417
59755656 215 18334862688785141478
6287921 2 18271233907656749970
653340 110 17188403310394143824

> <PUBCHEM_SHAPE_MULTIPOLES>
541.9
10.59
5.9
1.17
10.55
5.43
-0.05
-3.51
1.91
-8.12
-0.74
-0.08
-0.12
0.68

> <PUBCHEM_SHAPE_SELFOVERLAP>
1166.401

> <PUBCHEM_SHAPE_VOLUME>
299.7

> <PUBCHEM_COORDINATE_TYPE>
2
5
10

$$$$
