5462451
  -OEChem-02172602293D

 50 51  0     1  0  0  0  0  0999 V2000
    2.1900    2.3720    0.0911 O   0  0  0  0  0  0  0  0  0  0  0  0
   -0.2825   -0.3603   -0.5763 O   0  0  0  0  0  0  0  0  0  0  0  0
   -3.7377    0.4104   -1.0074 O   0  0  0  0  0  0  0  0  0  0  0  0
   -1.0530    1.7249    1.1201 O   0  0  0  0  0  0  0  0  0  0  0  0
   -3.4125   -1.9707    0.0595 O   0  0  0  0  0  0  0  0  0  0  0  0
   -1.6212   -0.0859   -2.4221 O   0  0  0  0  0  0  0  0  0  0  0  0
    3.8394   -0.6492    0.8961 N   0  0  2  0  0  0  0  0  0  0  0  0
    2.6059   -0.0062    0.3470 C   0  0  1  0  0  0  0  0  0  0  0  0
    3.0619    1.3165   -0.2727 C   0  0  2  0  0  0  0  0  0  0  0  0
    4.9850    0.1184    0.3844 C   0  0  0  0  0  0  0  0  0  0  0  0
    4.4467    1.5320    0.3130 C   0  0  0  0  0  0  0  0  0  0  0  0
    2.0239   -0.9959   -0.6162 C   0  0  0  0  0  0  0  0  0  0  0  0
    3.8353   -2.0445    0.4060 C   0  0  0  0  0  0  0  0  0  0  0  0
    2.7173   -2.1370   -0.5778 C   0  0  0  0  0  0  0  0  0  0  0  0
    0.8148   -0.7048   -1.4280 C   0  0  0  0  0  0  0  0  0  0  0  0
   -2.5520    0.2891   -0.1924 C   0  0  1  0  0  0  0  0  0  0  0  0
   -2.3165    1.6958    0.4517 C   0  0  0  0  0  0  0  0  0  0  0  0
   -2.8349   -0.8809    0.7922 C   0  0  2  0  0  0  0  0  0  0  0  0
   -1.4552   -0.0701   -1.2075 C   0  0  0  0  0  0  0  0  0  0  0  0
   -3.3938    2.0389    1.4977 C   0  0  0  0  0  0  0  0  0  0  0  0
   -2.3010    2.8134   -0.6055 C   0  0  0  0  0  0  0  0  0  0  0  0
   -1.6732   -1.4282    1.6118 C   0  0  0  0  0  0  0  0  0  0  0  0
   -3.8865   -2.9777    0.9354 C   0  0  0  0  0  0  0  0  0  0  0  0
    1.9000    0.1599    1.1705 H   0  0  0  0  0  0  0  0  0  0  0  0
    3.1159    1.2631   -1.3668 H   0  0  0  0  0  0  0  0  0  0  0  0
    5.8473    0.0412    1.0530 H   0  0  0  0  0  0  0  0  0  0  0  0
    5.2892   -0.2046   -0.6199 H   0  0  0  0  0  0  0  0  0  0  0  0
    5.0598    2.1832   -0.3178 H   0  0  0  0  0  0  0  0  0  0  0  0
    4.3895    1.9929    1.3071 H   0  0  0  0  0  0  0  0  0  0  0  0
    3.6397   -2.7201    1.2458 H   0  0  0  0  0  0  0  0  0  0  0  0
    4.7870   -2.3419   -0.0478 H   0  0  0  0  0  0  0  0  0  0  0  0
    2.4918   -3.0219   -1.1549 H   0  0  0  0  0  0  0  0  0  0  0  0
    0.5376   -1.5807   -2.0272 H   0  0  0  0  0  0  0  0  0  0  0  0
    1.0203    0.1290   -2.1091 H   0  0  0  0  0  0  0  0  0  0  0  0
    2.5712    3.1972   -0.2540 H   0  0  0  0  0  0  0  0  0  0  0  0
   -3.6152   -0.5416    1.4827 H   0  0  0  0  0  0  0  0  0  0  0  0
   -3.2618    3.0654    1.8608 H   0  0  0  0  0  0  0  0  0  0  0  0
   -4.4055    1.9516    1.0900 H   0  0  0  0  0  0  0  0  0  0  0  0
   -3.3060    1.4064    2.3872 H   0  0  0  0  0  0  0  0  0  0  0  0
   -1.5175    2.6466   -1.3526 H   0  0  0  0  0  0  0  0  0  0  0  0
   -3.2611    2.9099   -1.1220 H   0  0  0  0  0  0  0  0  0  0  0  0
   -2.0674    3.7789   -0.1409 H   0  0  0  0  0  0  0  0  0  0  0  0
   -1.0501   -2.1201    1.0356 H   0  0  0  0  0  0  0  0  0  0  0  0
   -2.0349   -1.9881    2.4820 H   0  0  0  0  0  0  0  0  0  0  0  0
   -1.0458   -0.6289    2.0136 H   0  0  0  0  0  0  0  0  0  0  0  0
   -3.9514   -0.4705   -1.3603 H   0  0  0  0  0  0  0  0  0  0  0  0
   -0.3530    1.6093    0.4557 H   0  0  0  0  0  0  0  0  0  0  0  0
   -3.0676   -3.6003    1.3072 H   0  0  0  0  0  0  0  0  0  0  0  0
   -4.5470   -3.6329    0.3591 H   0  0  0  0  0  0  0  0  0  0  0  0
   -4.4705   -2.5649    1.7644 H   0  0  0  0  0  0  0  0  0  0  0  0
  1  9  1  0  0  0  0
  1 35  1  0  0  0  0
  2 15  1  0  0  0  0
  2 19  1  0  0  0  0
  3 16  1  0  0  0  0
  3 46  1  0  0  0  0
  4 17  1  0  0  0  0
  4 47  1  0  0  0  0
  5 18  1  0  0  0  0
  5 23  1  0  0  0  0
  6 19  2  0  0  0  0
  7  8  1  0  0  0  0
  7 10  1  0  0  0  0
  7 13  1  0  0  0  0
  8  9  1  0  0  0  0
  8 12  1  0  0  0  0
  8 24  1  0  0  0  0
  9 11  1  0  0  0  0
  9 25  1  0  0  0  0
 10 11  1  0  0  0  0
 10 26  1  0  0  0  0
 10 27  1  0  0  0  0
 11 28  1  0  0  0  0
 11 29  1  0  0  0  0
 12 14  2  0  0  0  0
 12 15  1  0  0  0  0
 13 14  1  0  0  0  0
 13 30  1  0  0  0  0
 13 31  1  0  0  0  0
 14 32  1  0  0  0  0
 15 33  1  0  0  0  0
 15 34  1  0  0  0  0
 16 17  1  0  0  0  0
 16 18  1  0  0  0  0
 16 19  1  0  0  0  0
 17 20  1  0  0  0  0
 17 21  1  0  0  0  0
 18 22  1  0  0  0  0
 18 36  1  0  0  0  0
 20 37  1  0  0  0  0
 20 38  1  0  0  0  0
 20 39  1  0  0  0  0
 21 40  1  0  0  0  0
 21 41  1  0  0  0  0
 21 42  1  0  0  0  0
 22 43  1  0  0  0  0
 22 44  1  0  0  0  0
 22 45  1  0  0  0  0
 23 48  1  0  0  0  0
 23 49  1  0  0  0  0
 23 50  1  0  0  0  0
M  END
> <PUBCHEM_COMPOUND_CID>
5462451

> <PUBCHEM_CONFORMER_RMSD>
1

> <PUBCHEM_CONFORMER_DIVERSEORDER>
2
159
88
168
161
79
97
137
101
67
81
160
119
153
171
185
74
11
155
151
73
162
25
91
183
40
42
9
17
179
126
63
134
10
149
84
150
176
109
164
43
51
86
143
114
21
92
54
157
123
152
28
120
57
85
23
64
125
93
144
26
104
96
52
45
117
122
70
140
48
95
33
39
172
133
131
8
136
41
12
1
34
78
53
138
36
141
46
5
80
62
124
108
142
60
116
111
24
186
38
170
66
107
158
13
146
135
15
44
18
32
178
4
19
72
130
31
69
77
139
75
113
121
71
14
147
148
47
154
182
6
110
166
102
100
27
112
145
129
127
87
68
106
49
3
180
99
65
83
22
103
175
90
165
82
167
58
56
61
30
156
7
16
187
59
132
181
177
89
29
174
118
128
173
163
50
105
115
76
55
94
98
169
37
35
20
184

> <PUBCHEM_MMFF94_PARTIAL_CHARGES>
23
1 -0.68
10 0.27
12 -0.28
13 0.41
14 -0.29
15 0.42
16 0.34
17 0.28
18 0.28
19 0.66
2 -0.43
23 0.28
3 -0.68
32 0.15
35 0.4
4 -0.68
46 0.4
47 0.4
5 -0.56
6 -0.57
7 -0.81
8 0.41
9 0.28

> <PUBCHEM_EFFECTIVE_ROTOR_COUNT>
7.8

> <PUBCHEM_PHARMACOPHORE_FEATURES>
12
1 1 acceptor
1 1 donor
1 3 acceptor
1 3 donor
1 4 acceptor
1 4 donor
1 5 acceptor
1 6 acceptor
1 7 cation
3 17 20 21 hydrophobe
5 7 8 12 13 14 rings
5 7 8 9 10 11 rings

> <PUBCHEM_HEAVY_ATOM_COUNT>
23

> <PUBCHEM_ATOM_DEF_STEREO_COUNT>
4

> <PUBCHEM_ATOM_UDEF_STEREO_COUNT>
0

> <PUBCHEM_BOND_DEF_STEREO_COUNT>
0

> <PUBCHEM_BOND_UDEF_STEREO_COUNT>
0

> <PUBCHEM_ISOTOPIC_ATOM_COUNT>
0

> <PUBCHEM_COMPONENT_COUNT>
1

> <PUBCHEM_CACTVS_TAUTO_COUNT>
1

> <PUBCHEM_CONFORMER_ID>
005359B300000002

> <PUBCHEM_MMFF94_ENERGY>
59.2184

> <PUBCHEM_FEATURE_SELFOVERLAP>
61.283

> <PUBCHEM_SHAPE_FINGERPRINT>
10366900 7 18117006670175048650
10616163 171 18413394254194340664
11370993 70 18261388901757809467
11552529 35 18337951293740524090
12363563 72 15719391771565531790
12403814 3 17775000206948382207
12507557 5 18336537300718042752
12596599 1 18261393304299611634
12596602 18 17969765540946452496
12633257 1 18261672554604426442
13004483 165 18340485681613180263
13140716 1 18270966722151822832
13224815 77 17775567528846006518
13533116 47 18263078834250661495
13544653 18 18116157860189081803
13583140 156 18412257329058885572
14081887 123 18335425724073633659
14178342 30 18260839158828959623
14223421 5 18410860970740001286
14289901 80 18412825806698903626
14341114 176 18410299098928996178
14787075 74 18047471406966036258
17492 89 18410857655121155786
19930381 70 17978227484779626225
20681677 274 18408039636767216746
20681677 76 18410572894377561566
20715895 44 17339844071751990641
21065199 12 18410575072153028834
21475661 188 17264707815128461641
21756936 100 18129379466470502084
21864079 5 17989483048290992160
23227448 37 18338800014012095649
23419403 2 17974271425358708813
23557571 272 18114463465188259843
23559900 14 18408317787349309542
3797600 57 18267589194272243306
469060 322 17841411924193587103
474 4 18340482279613316948
5104073 3 18341608188416160506
5283173 99 18188473740996614477
7097593 13 18263927622804249810
9709674 26 18341051809235291102

> <PUBCHEM_SHAPE_MULTIPOLES>
433.13
9.14
2.99
1.46
5.72
0.01
0.37
0.77
-2.21
-1.84
-0.69
-1.03
0.08
0.49

> <PUBCHEM_SHAPE_SELFOVERLAP>
890.655

> <PUBCHEM_SHAPE_VOLUME>
252.9

> <PUBCHEM_COORDINATE_TYPE>
2
5
10

$$$$
