11036041
  -OEChem-02172602263D

 49 51  0     1  0  0  0  0  0999 V2000
    0.3554   -0.1191   -0.3369 O   0  0  0  0  0  0  0  0  0  0  0  0
    2.0828   -3.5079    1.2001 O   0  0  0  0  0  0  0  0  0  0  0  0
    4.4436   -2.4850    0.7982 O   0  0  0  0  0  0  0  0  0  0  0  0
    4.6071    1.9179   -0.9448 O   0  0  0  0  0  0  0  0  0  0  0  0
   -4.4727    0.1946    1.5649 O   0  0  0  0  0  0  0  0  0  0  0  0
   -5.8906   -0.5259   -0.7141 O   0  0  0  0  0  0  0  0  0  0  0  0
   -0.2983   -1.3927   -0.4515 C   0  0  1  0  0  0  0  0  0  0  0  0
    0.0649   -2.3023    0.7207 C   0  0  0  0  0  0  0  0  0  0  0  0
    1.7185   -0.2261   -0.2350 C   0  0  0  0  0  0  0  0  0  0  0  0
    2.3675   -1.3613    0.2593 C   0  0  0  0  0  0  0  0  0  0  0  0
    1.5586   -2.4972    0.7474 C   0  0  0  0  0  0  0  0  0  0  0  0
   -1.7929   -1.1597   -0.5186 C   0  0  0  0  0  0  0  0  0  0  0  0
    2.4663    0.8847   -0.6277 C   0  0  0  0  0  0  0  0  0  0  0  0
    3.7623   -1.4023    0.3300 C   0  0  0  0  0  0  0  0  0  0  0  0
    1.7847    2.1147   -1.1379 C   0  0  0  0  0  0  0  0  0  0  0  0
    3.8592    0.8465   -0.5566 C   0  0  0  0  0  0  0  0  0  0  0  0
    4.5055   -0.2960   -0.0833 C   0  0  0  0  0  0  0  0  0  0  0  0
   -2.4573   -0.5838    0.5637 C   0  0  0  0  0  0  0  0  0  0  0  0
   -2.5038   -1.5219   -1.6624 C   0  0  0  0  0  0  0  0  0  0  0  0
    1.4540    3.0962   -0.0424 C   0  0  0  0  0  0  0  0  0  0  0  0
   -3.8344   -0.3696    0.5021 C   0  0  0  0  0  0  0  0  0  0  0  0
   -3.8806   -1.3077   -1.7239 C   0  0  0  0  0  0  0  0  0  0  0  0
   -4.5460   -0.7315   -0.6418 C   0  0  0  0  0  0  0  0  0  0  0  0
    0.2399    3.5387    0.3367 C   0  0  0  0  0  0  0  0  0  0  0  0
   -0.0189    4.5224    1.4424 C   0  0  0  0  0  0  0  0  0  0  0  0
   -1.0005    3.0572   -0.3682 C   0  0  0  0  0  0  0  0  0  0  0  0
   -4.5742    1.6172    1.5796 C   0  0  0  0  0  0  0  0  0  0  0  0
    0.0331   -1.8536   -1.3938 H   0  0  0  0  0  0  0  0  0  0  0  0
   -0.4184   -3.2794    0.6092 H   0  0  0  0  0  0  0  0  0  0  0  0
   -0.2159   -1.8761    1.6904 H   0  0  0  0  0  0  0  0  0  0  0  0
    2.4407    2.6349   -1.8492 H   0  0  0  0  0  0  0  0  0  0  0  0
    0.9346    1.8345   -1.7636 H   0  0  0  0  0  0  0  0  0  0  0  0
    5.5916   -0.3190   -0.0305 H   0  0  0  0  0  0  0  0  0  0  0  0
   -1.9124   -0.2861    1.4559 H   0  0  0  0  0  0  0  0  0  0  0  0
   -1.9997   -1.9715   -2.5135 H   0  0  0  0  0  0  0  0  0  0  0  0
    2.3167    3.4910    0.4940 H   0  0  0  0  0  0  0  0  0  0  0  0
   -4.4293   -1.5915   -2.6179 H   0  0  0  0  0  0  0  0  0  0  0  0
    5.3990   -2.3070    0.7646 H   0  0  0  0  0  0  0  0  0  0  0  0
    5.5493    1.7094   -0.8243 H   0  0  0  0  0  0  0  0  0  0  0  0
    0.9125    4.8492    1.9164 H   0  0  0  0  0  0  0  0  0  0  0  0
   -0.5259    5.4108    1.0525 H   0  0  0  0  0  0  0  0  0  0  0  0
   -0.6476    4.0705    2.2163 H   0  0  0  0  0  0  0  0  0  0  0  0
   -0.8587    2.2749   -1.1117 H   0  0  0  0  0  0  0  0  0  0  0  0
   -1.7040    2.6555    0.3685 H   0  0  0  0  0  0  0  0  0  0  0  0
   -1.4877    3.8993   -0.8720 H   0  0  0  0  0  0  0  0  0  0  0  0
   -6.1918   -0.1509    0.1313 H   0  0  0  0  0  0  0  0  0  0  0  0
   -4.9546    1.9980    0.6263 H   0  0  0  0  0  0  0  0  0  0  0  0
   -3.5978    2.0591    1.7984 H   0  0  0  0  0  0  0  0  0  0  0  0
   -5.2709    1.9021    2.3727 H   0  0  0  0  0  0  0  0  0  0  0  0
  1  7  1  0  0  0  0
  1  9  1  0  0  0  0
  2 11  2  0  0  0  0
  3 14  1  0  0  0  0
  3 38  1  0  0  0  0
  4 16  1  0  0  0  0
  4 39  1  0  0  0  0
  5 21  1  0  0  0  0
  5 27  1  0  0  0  0
  6 23  1  0  0  0  0
  6 46  1  0  0  0  0
  7  8  1  0  0  0  0
  7 12  1  0  0  0  0
  7 28  1  0  0  0  0
  8 11  1  0  0  0  0
  8 29  1  0  0  0  0
  8 30  1  0  0  0  0
  9 10  1  0  0  0  0
  9 13  2  0  0  0  0
 10 11  1  0  0  0  0
 10 14  2  0  0  0  0
 12 18  2  0  0  0  0
 12 19  1  0  0  0  0
 13 15  1  0  0  0  0
 13 16  1  0  0  0  0
 14 17  1  0  0  0  0
 15 20  1  0  0  0  0
 15 31  1  0  0  0  0
 15 32  1  0  0  0  0
 16 17  2  0  0  0  0
 17 33  1  0  0  0  0
 18 21  1  0  0  0  0
 18 34  1  0  0  0  0
 19 22  2  0  0  0  0
 19 35  1  0  0  0  0
 20 24  2  0  0  0  0
 20 36  1  0  0  0  0
 21 23  2  0  0  0  0
 22 23  1  0  0  0  0
 22 37  1  0  0  0  0
 24 25  1  0  0  0  0
 24 26  1  0  0  0  0
 25 40  1  0  0  0  0
 25 41  1  0  0  0  0
 25 42  1  0  0  0  0
 26 43  1  0  0  0  0
 26 44  1  0  0  0  0
 26 45  1  0  0  0  0
 27 47  1  0  0  0  0
 27 48  1  0  0  0  0
 27 49  1  0  0  0  0
M  END
> <PUBCHEM_COMPOUND_CID>
11036041

> <PUBCHEM_CONFORMER_RMSD>
0.8

> <PUBCHEM_CONFORMER_DIVERSEORDER>
1
52
67
86
68
69
8
53
81
21
31
45
9
51
37
78
74
90
44
79
50
83
6
73
38
11
82
49
10
77
84
46
54
72
64
43
59
29
57
7
66
33
18
41
19
60
80
23
27
76
20
71
40
34
55
24
47
89
58
61
5
48
62
30
87
17
15
88
56
4
25
65
32
12
39
26
36
22
13
28
42
3
70
35
16
75
2
14
63
85

> <PUBCHEM_MMFF94_PARTIAL_CHARGES>
35
1 -0.36
10 0.09
11 0.42
12 -0.14
13 -0.14
14 0.08
15 0.28
16 0.08
17 -0.15
18 -0.15
19 -0.15
2 -0.57
20 -0.29
21 0.08
22 -0.15
23 0.08
24 -0.28
25 0.14
26 0.14
27 0.28
3 -0.53
33 0.15
34 0.15
35 0.15
36 0.15
37 0.15
38 0.45
39 0.45
4 -0.53
46 0.45
5 -0.36
6 -0.53
7 0.42
8 0.06
9 0.08

> <PUBCHEM_EFFECTIVE_ROTOR_COUNT>
4.6

> <PUBCHEM_PHARMACOPHORE_FEATURES>
10
1 1 acceptor
1 2 acceptor
1 3 donor
1 4 donor
1 5 acceptor
1 6 donor
3 24 25 26 hydrophobe
6 1 7 8 9 10 11 rings
6 12 18 19 21 22 23 rings
6 9 10 13 14 16 17 rings

> <PUBCHEM_HEAVY_ATOM_COUNT>
27

> <PUBCHEM_ATOM_DEF_STEREO_COUNT>
0

> <PUBCHEM_ATOM_UDEF_STEREO_COUNT>
1

> <PUBCHEM_BOND_DEF_STEREO_COUNT>
0

> <PUBCHEM_BOND_UDEF_STEREO_COUNT>
0

> <PUBCHEM_ISOTOPIC_ATOM_COUNT>
0

> <PUBCHEM_COMPONENT_COUNT>
1

> <PUBCHEM_CACTVS_TAUTO_COUNT>
63

> <PUBCHEM_CONFORMER_ID>
00A8658900000001

> <PUBCHEM_MMFF94_ENERGY>
81.7649

> <PUBCHEM_FEATURE_SELFOVERLAP>
50.776

> <PUBCHEM_SHAPE_FINGERPRINT>
10906281 52 18194416695950542716
1100329 8 18192717967449089816
11578080 2 17843369974029776665
12156800 1 17684888506975225521
12236239 1 18272083894901956559
12553582 1 18410291410911104086
12788726 201 18339654369165091908
13140716 1 18261109729580304674
13583140 156 18262804085693876807
13965767 371 17555479244255407185
14394314 77 18413113852770440384
14790565 3 18118982505513853004
16728300 4 14360711629444378930
1813 80 18125159325499608582
18681886 176 18200300138856357774
20511986 3 18130779088331742737
20739085 24 18114476573707814164
21033648 29 17385988616479927037
21041028 32 18264489494678369894
21133410 90 17488156242351944025
21344244 78 18193532537492017811
21641784 216 17968955089080810716
22122407 14 18340221734782724457
23557571 272 15985118430826405499
345986 75 18190161417887831274
3886686 26 17400324212597947088
392239 28 18342727521376568784
474 4 18335983172326858047
5895379 119 17345494685244781513
7164475 11 18268990887146282966
7471813 234 18270101483440877109
84936 182 17909827970095766376
9981440 41 16975598336153102857

> <PUBCHEM_SHAPE_MULTIPOLES>
520.43
9.74
4.56
1.37
6.3
4.57
0
-2.51
0.36
-2.43
-1.62
1.09
0
-2.49

> <PUBCHEM_SHAPE_SELFOVERLAP>
1126.957

> <PUBCHEM_SHAPE_VOLUME>
284.9

> <PUBCHEM_COORDINATE_TYPE>
2
5
10

$$$$
