5469796
  -OEChem-02172602433D

 64 64  0     1  0  0  0  0  0999 V2000
    0.2371    0.8191   -1.2493 O   0  0  0  0  0  0  0  0  0  0  0  0
   -2.5229    3.6233    1.2778 O   0  0  0  0  0  0  0  0  0  0  0  0
   -4.8102   -0.5580   -1.4932 O   0  0  0  0  0  0  0  0  0  0  0  0
    2.5010    2.7357   -0.5417 C   0  0  0  0  0  0  0  0  0  0  0  0
    1.4547    2.1101    0.3925 C   0  0  0  0  0  0  0  0  0  0  0  0
    3.8447    3.1406    0.0743 C   0  0  0  0  0  0  0  0  0  0  0  0
    0.0917    1.8279   -0.2551 C   0  0  2  0  0  0  0  0  0  0  0  0
    4.6520    1.9583    0.6194 C   0  0  0  0  0  0  0  0  0  0  0  0
    0.7278   -2.9780    0.5417 C   0  0  0  0  0  0  0  0  0  0  0  0
    1.9087   -2.7812   -0.4109 C   0  0  0  0  0  0  0  0  0  0  0  0
   -0.9043    1.3080    0.7928 C   0  0  0  0  0  0  0  0  0  0  0  0
   -0.5175   -3.4587   -0.2071 C   0  0  0  0  0  0  0  0  0  0  0  0
    3.1468   -2.2740    0.3349 C   0  0  0  0  0  0  0  0  0  0  0  0
    5.0904    0.9683   -0.4662 C   0  0  0  0  0  0  0  0  0  0  0  0
   -1.7052   -3.6252    0.7430 C   0  0  0  0  0  0  0  0  0  0  0  0
    4.3476   -2.0315   -0.5886 C   0  0  0  0  0  0  0  0  0  0  0  0
   -2.3374    1.4300    0.3288 C   0  0  0  0  0  0  0  0  0  0  0  0
    5.9472   -0.1470    0.0640 C   0  0  0  0  0  0  0  0  0  0  0  0
    5.6023   -1.4420   -0.0011 C   0  0  0  0  0  0  0  0  0  0  0  0
   -2.9816   -4.0867    0.0371 C   0  0  0  0  0  0  0  0  0  0  0  0
   -3.0761    2.5832    0.5935 C   0  0  0  0  0  0  0  0  0  0  0  0
   -2.9198    0.3743   -0.3725 C   0  0  0  0  0  0  0  0  0  0  0  0
   -4.1588   -4.2740    0.9822 C   0  0  0  0  0  0  0  0  0  0  0  0
   -4.2410    0.4717   -0.8091 C   0  0  0  0  0  0  0  0  0  0  0  0
   -4.3975    2.6807    0.1571 C   0  0  0  0  0  0  0  0  0  0  0  0
   -4.9798    1.6250   -0.5442 C   0  0  0  0  0  0  0  0  0  0  0  0
    2.0583    3.6471   -0.9660 H   0  0  0  0  0  0  0  0  0  0  0  0
    2.6663    2.0726   -1.3979 H   0  0  0  0  0  0  0  0  0  0  0  0
    1.3153    2.7848    1.2464 H   0  0  0  0  0  0  0  0  0  0  0  0
    1.8605    1.1702    0.7857 H   0  0  0  0  0  0  0  0  0  0  0  0
    4.4394    3.6697   -0.6800 H   0  0  0  0  0  0  0  0  0  0  0  0
    3.6634    3.8512    0.8896 H   0  0  0  0  0  0  0  0  0  0  0  0
   -0.2816    2.7358   -0.7418 H   0  0  0  0  0  0  0  0  0  0  0  0
    4.0794    1.4349    1.3942 H   0  0  0  0  0  0  0  0  0  0  0  0
    5.5447    2.3584    1.1177 H   0  0  0  0  0  0  0  0  0  0  0  0
    0.9965   -3.7068    1.3159 H   0  0  0  0  0  0  0  0  0  0  0  0
    0.5070   -2.0320    1.0508 H   0  0  0  0  0  0  0  0  0  0  0  0
    2.1447   -3.7300   -0.9076 H   0  0  0  0  0  0  0  0  0  0  0  0
    1.6352   -2.0660   -1.1955 H   0  0  0  0  0  0  0  0  0  0  0  0
   -0.6971    0.2576    1.0371 H   0  0  0  0  0  0  0  0  0  0  0  0
   -0.7930    1.8578    1.7357 H   0  0  0  0  0  0  0  0  0  0  0  0
   -0.3057   -4.4141   -0.7020 H   0  0  0  0  0  0  0  0  0  0  0  0
   -0.7765   -2.7375   -0.9917 H   0  0  0  0  0  0  0  0  0  0  0  0
    2.8981   -1.3360    0.8473 H   0  0  0  0  0  0  0  0  0  0  0  0
    3.4300   -2.9933    1.1133 H   0  0  0  0  0  0  0  0  0  0  0  0
    4.2067    0.5852   -0.9794 H   0  0  0  0  0  0  0  0  0  0  0  0
    5.6744    1.5047   -1.2245 H   0  0  0  0  0  0  0  0  0  0  0  0
   -1.4444   -4.3502    1.5239 H   0  0  0  0  0  0  0  0  0  0  0  0
   -1.9017   -2.6716    1.2490 H   0  0  0  0  0  0  0  0  0  0  0  0
    4.6319   -2.9964   -1.0312 H   0  0  0  0  0  0  0  0  0  0  0  0
    4.0220   -1.4343   -1.4482 H   0  0  0  0  0  0  0  0  0  0  0  0
    6.8936    0.1228    0.5249 H   0  0  0  0  0  0  0  0  0  0  0  0
   -2.7889   -5.0348   -0.4789 H   0  0  0  0  0  0  0  0  0  0  0  0
   -3.2564   -3.3562   -0.7327 H   0  0  0  0  0  0  0  0  0  0  0  0
    6.2943   -2.1621    0.4318 H   0  0  0  0  0  0  0  0  0  0  0  0
    0.6120    0.0287   -0.8253 H   0  0  0  0  0  0  0  0  0  0  0  0
   -2.3448   -0.5249   -0.5798 H   0  0  0  0  0  0  0  0  0  0  0  0
   -4.4049   -3.3352    1.4884 H   0  0  0  0  0  0  0  0  0  0  0  0
   -5.0427   -4.6045    0.4279 H   0  0  0  0  0  0  0  0  0  0  0  0
   -3.9321   -5.0265    1.7440 H   0  0  0  0  0  0  0  0  0  0  0  0
   -4.9848    3.5730    0.3565 H   0  0  0  0  0  0  0  0  0  0  0  0
   -6.0094    1.7066   -0.8817 H   0  0  0  0  0  0  0  0  0  0  0  0
   -3.1826    4.3327    1.3651 H   0  0  0  0  0  0  0  0  0  0  0  0
   -4.1550   -1.2695   -1.5945 H   0  0  0  0  0  0  0  0  0  0  0  0
  1  7  1  0  0  0  0
  1 56  1  0  0  0  0
  2 21  1  0  0  0  0
  2 63  1  0  0  0  0
  3 24  1  0  0  0  0
  3 64  1  0  0  0  0
  4  5  1  0  0  0  0
  4  6  1  0  0  0  0
  4 27  1  0  0  0  0
  4 28  1  0  0  0  0
  5  7  1  0  0  0  0
  5 29  1  0  0  0  0
  5 30  1  0  0  0  0
  6  8  1  0  0  0  0
  6 31  1  0  0  0  0
  6 32  1  0  0  0  0
  7 11  1  0  0  0  0
  7 33  1  0  0  0  0
  8 14  1  0  0  0  0
  8 34  1  0  0  0  0
  8 35  1  0  0  0  0
  9 10  1  0  0  0  0
  9 12  1  0  0  0  0
  9 36  1  0  0  0  0
  9 37  1  0  0  0  0
 10 13  1  0  0  0  0
 10 38  1  0  0  0  0
 10 39  1  0  0  0  0
 11 17  1  0  0  0  0
 11 40  1  0  0  0  0
 11 41  1  0  0  0  0
 12 15  1  0  0  0  0
 12 42  1  0  0  0  0
 12 43  1  0  0  0  0
 13 16  1  0  0  0  0
 13 44  1  0  0  0  0
 13 45  1  0  0  0  0
 14 18  1  0  0  0  0
 14 46  1  0  0  0  0
 14 47  1  0  0  0  0
 15 20  1  0  0  0  0
 15 48  1  0  0  0  0
 15 49  1  0  0  0  0
 16 19  1  0  0  0  0
 16 50  1  0  0  0  0
 16 51  1  0  0  0  0
 17 21  2  0  0  0  0
 17 22  1  0  0  0  0
 18 19  2  0  0  0  0
 18 52  1  0  0  0  0
 19 55  1  0  0  0  0
 20 23  1  0  0  0  0
 20 53  1  0  0  0  0
 20 54  1  0  0  0  0
 21 25  1  0  0  0  0
 22 24  2  0  0  0  0
 22 57  1  0  0  0  0
 23 58  1  0  0  0  0
 23 59  1  0  0  0  0
 23 60  1  0  0  0  0
 24 26  1  0  0  0  0
 25 26  2  0  0  0  0
 25 61  1  0  0  0  0
 26 62  1  0  0  0  0
M  END
> <PUBCHEM_COMPOUND_CID>
5469796

> <PUBCHEM_CONFORMER_RMSD>
1.6

> <PUBCHEM_CONFORMER_DIVERSEORDER>
1
103
101
38
36
22
90
88
57
113
25
18
76
107
46
100
2
83
7
117
111
73
55
116
31
84
50
99
114
118
68
108
70
63
58
21
86
11
105
5
33
12
42
61
78
54
37
49
56
28
34
98
71
109
79
60
119
23
102
14
9
59
91
85
40
10
13
62
75
74
66
44
95
39
92
35
41
19
97
104
6
24
45
27
47
96
4
26
48
29
15
94
43
64
87
67
93
80
112
51
69
89
115
65
8
3
106
53
110
82
81
17
52
30
77
16
72
32
20

> <PUBCHEM_MMFF94_PARTIAL_CHARGES>
23
1 -0.68
11 0.14
14 0.14
16 0.14
17 -0.14
18 -0.29
19 -0.29
2 -0.53
21 0.08
22 -0.15
24 0.08
25 -0.15
26 -0.15
3 -0.53
52 0.15
55 0.15
56 0.4
57 0.15
61 0.15
62 0.15
63 0.45
64 0.45
7 0.28

> <PUBCHEM_EFFECTIVE_ROTOR_COUNT>
15

> <PUBCHEM_PHARMACOPHORE_FEATURES>
8
1 1 acceptor
1 1 donor
1 2 donor
1 23 hydrophobe
1 3 donor
3 4 5 6 hydrophobe
3 8 14 18 hydrophobe
6 17 21 22 24 25 26 rings

> <PUBCHEM_HEAVY_ATOM_COUNT>
26

> <PUBCHEM_ATOM_DEF_STEREO_COUNT>
1

> <PUBCHEM_ATOM_UDEF_STEREO_COUNT>
0

> <PUBCHEM_BOND_DEF_STEREO_COUNT>
1

> <PUBCHEM_BOND_UDEF_STEREO_COUNT>
0

> <PUBCHEM_ISOTOPIC_ATOM_COUNT>
0

> <PUBCHEM_COMPONENT_COUNT>
1

> <PUBCHEM_CACTVS_TAUTO_COUNT>
13

> <PUBCHEM_CONFORMER_ID>
0053766400000001

> <PUBCHEM_MMFF94_ENERGY>
27.0496

> <PUBCHEM_FEATURE_SELFOVERLAP>
40.597

> <PUBCHEM_SHAPE_FINGERPRINT>
10675989 125 17471296622628620284
10864689 126 18049448037226341374
1100329 8 18410009893211892054
11227688 84 17983279715704461631
12788726 201 17614577255519539412
1361 2 18265896852540238450
14117953 113 17762609595503202982
144659 178 18336269045482338956
14784336 7 18131058346762834032
14790565 3 18122909728697255417
15483637 11 18410014376788588003
15664445 248 17550111364069557951
15968369 153 18058154210596981646
19930381 70 17833271917985888672
23559900 14 18270949151219829081
338550 245 18261959669015562916
3633792 109 18265602201121536693
373842 8 18337669844491126942
4073 2 18340204210762632064
463206 1 18411982447110487044
653340 110 18196370540654636834

> <PUBCHEM_SHAPE_MULTIPOLES>
517.46
12.82
6.52
0.99
7.87
5.14
0.05
-1.72
1.18
-4.49
-1.53
-0.63
-0.07
0.56

> <PUBCHEM_SHAPE_SELFOVERLAP>
1005.887

> <PUBCHEM_SHAPE_VOLUME>
311.8

> <PUBCHEM_COORDINATE_TYPE>
2
5
10

$$$$
