120619
  -OEChem-02172602443D

 31 31  0     1  0  0  0  0  0999 V2000
   -2.9034    0.2640    0.5622 N   0  0  0  0  0  0  0  0  0  0  0  0
   -0.0930   -0.3964    0.0333 N   0  0  0  0  0  0  0  0  0  0  0  0
   -2.4439   -0.1581   -0.7430 C   0  0  1  0  0  0  0  0  0  0  0  0
   -0.9784    0.2572   -0.9240 C   0  0  0  0  0  0  0  0  0  0  0  0
   -2.6695   -1.6590   -0.9092 C   0  0  0  0  0  0  0  0  0  0  0  0
   -4.3347   -0.0144    0.7323 C   0  0  0  0  0  0  0  0  0  0  0  0
   -2.6453    1.6935    0.7749 C   0  0  0  0  0  0  0  0  0  0  0  0
    1.2703   -0.2001    0.0558 C   0  0  0  0  0  0  0  0  0  0  0  0
    1.8994    0.6636   -0.8667 C   0  0  0  0  0  0  0  0  0  0  0  0
    2.0869   -0.8560    1.0022 C   0  0  0  0  0  0  0  0  0  0  0  0
    3.2799    0.8618   -0.8442 C   0  0  0  0  0  0  0  0  0  0  0  0
    3.4675   -0.6576    1.0247 C   0  0  0  0  0  0  0  0  0  0  0  0
    4.0639    0.2013    0.1015 C   0  0  0  0  0  0  0  0  0  0  0  0
   -3.0153    0.3489   -1.5340 H   0  0  0  0  0  0  0  0  0  0  0  0
   -0.8501    1.3451   -0.9135 H   0  0  0  0  0  0  0  0  0  0  0  0
   -0.6800   -0.0591   -1.9334 H   0  0  0  0  0  0  0  0  0  0  0  0
   -2.3053   -2.2333   -0.0498 H   0  0  0  0  0  0  0  0  0  0  0  0
   -3.7257   -1.9035   -1.0636 H   0  0  0  0  0  0  0  0  0  0  0  0
   -2.1375   -2.0265   -1.7945 H   0  0  0  0  0  0  0  0  0  0  0  0
   -0.5016   -0.9862    0.7494 H   0  0  0  0  0  0  0  0  0  0  0  0
   -4.5407   -1.0881    0.7800 H   0  0  0  0  0  0  0  0  0  0  0  0
   -4.9423    0.4329   -0.0627 H   0  0  0  0  0  0  0  0  0  0  0  0
   -4.6906    0.3837    1.6904 H   0  0  0  0  0  0  0  0  0  0  0  0
   -3.1504    2.0405    1.6852 H   0  0  0  0  0  0  0  0  0  0  0  0
   -3.0051    2.3135   -0.0544 H   0  0  0  0  0  0  0  0  0  0  0  0
   -1.5868    1.9009    0.9605 H   0  0  0  0  0  0  0  0  0  0  0  0
    1.3319    1.1984   -1.6237 H   0  0  0  0  0  0  0  0  0  0  0  0
    1.6395   -1.5298    1.7300 H   0  0  0  0  0  0  0  0  0  0  0  0
    3.7450    1.5300   -1.5632 H   0  0  0  0  0  0  0  0  0  0  0  0
    4.0783   -1.1719    1.7610 H   0  0  0  0  0  0  0  0  0  0  0  0
    5.1388    0.3556    0.1189 H   0  0  0  0  0  0  0  0  0  0  0  0
  1  3  1  0  0  0  0
  1  6  1  0  0  0  0
  1  7  1  0  0  0  0
  2  4  1  0  0  0  0
  2  8  1  0  0  0  0
  2 20  1  0  0  0  0
  3  4  1  0  0  0  0
  3  5  1  0  0  0  0
  3 14  1  0  0  0  0
  4 15  1  0  0  0  0
  4 16  1  0  0  0  0
  5 17  1  0  0  0  0
  5 18  1  0  0  0  0
  5 19  1  0  0  0  0
  6 21  1  0  0  0  0
  6 22  1  0  0  0  0
  6 23  1  0  0  0  0
  7 24  1  0  0  0  0
  7 25  1  0  0  0  0
  7 26  1  0  0  0  0
  8  9  2  0  0  0  0
  8 10  1  0  0  0  0
  9 11  1  0  0  0  0
  9 27  1  0  0  0  0
 10 12  2  0  0  0  0
 10 28  1  0  0  0  0
 11 13  2  0  0  0  0
 11 29  1  0  0  0  0
 12 13  1  0  0  0  0
 12 30  1  0  0  0  0
 13 31  1  0  0  0  0
M  END
> <PUBCHEM_COMPOUND_CID>
120619

> <PUBCHEM_CONFORMER_RMSD>
0.6

> <PUBCHEM_CONFORMER_DIVERSEORDER>
14
7
22
13
19
23
2
11
8
1
21
10
5
12
20
6
17
18
3
4
15
16
9

> <PUBCHEM_MMFF94_PARTIAL_CHARGES>
18
1 -0.81
10 -0.15
11 -0.15
12 -0.15
13 -0.15
2 -0.87
20 0.4
27 0.15
28 0.15
29 0.15
3 0.27
30 0.15
31 0.15
4 0.37
6 0.27
7 0.27
8 0.1
9 -0.15

> <PUBCHEM_EFFECTIVE_ROTOR_COUNT>
4

> <PUBCHEM_PHARMACOPHORE_FEATURES>
4
1 1 cation
1 2 cation
1 2 donor
6 8 9 10 11 12 13 rings

> <PUBCHEM_HEAVY_ATOM_COUNT>
13

> <PUBCHEM_ATOM_DEF_STEREO_COUNT>
0

> <PUBCHEM_ATOM_UDEF_STEREO_COUNT>
1

> <PUBCHEM_BOND_DEF_STEREO_COUNT>
0

> <PUBCHEM_BOND_UDEF_STEREO_COUNT>
0

> <PUBCHEM_ISOTOPIC_ATOM_COUNT>
0

> <PUBCHEM_COMPONENT_COUNT>
1

> <PUBCHEM_CACTVS_TAUTO_COUNT>
1

> <PUBCHEM_CONFORMER_ID>
0001D72B0000000E

> <PUBCHEM_MMFF94_ENERGY>
43.2562

> <PUBCHEM_FEATURE_SELFOVERLAP>
20.299

> <PUBCHEM_SHAPE_FINGERPRINT>
11615757 297 18040155123550717500
12032990 46 16805600331290568538
12251169 10 18409449184998900959
124424 183 16200147660506880486
12500047 106 16845569820574517566
12932764 1 18333723632944955044
13296908 3 15647048252964553406
14144814 61 18040712558871469826
14252887 29 17749666303930270946
15309172 13 18186516600860314658
15375462 189 18261108590695890072
15653759 3 16845573144778983855
17844478 74 16370442233150801428
18186145 218 18410852187843266796
190213 19 18409729547352267556
19050596 39 18335700563346607282
19107657 162 14201409278143458129
19422 9 18410290328600652486
1986462 14 16845572032503630807
200 152 17822003238124630023
20279233 1 15554447409464155150
20645477 56 16988563506953467777
20645477 70 17241588581477736058
20715346 28 15430033266492647734
21061003 4 15936700310900041077
22169311 21 14273724145106768570
22485316 2 16805322202019489691
23048698 100 18186240623520656321
23402539 116 18201430393764255317
23402655 69 17822281375637322118
23557571 272 16486972938039095133
26918003 58 17022619779959383265
3248919 1 18272081695261094014
474 4 17971756829107614452
57812782 119 14490191621969527788
77492 1 18408038520133456212

> <PUBCHEM_SHAPE_MULTIPOLES>
257.57
8.2
1.27
1.17
0.52
0.03
0.01
0.23
-1.46
0.65
0
0.05
-0.04
-1.25

> <PUBCHEM_SHAPE_SELFOVERLAP>
512.6

> <PUBCHEM_SHAPE_VOLUME>
152.8

> <PUBCHEM_COORDINATE_TYPE>
2
5
10

$$$$
