10172562
  -OEChem-02172602283D

 59 61  0     1  0  0  0  0  0999 V2000
    1.8977    1.7110    1.8304 O   0  0  0  0  0  0  0  0  0  0  0  0
   -0.1786   -0.0865    0.5077 O   0  0  0  0  0  0  0  0  0  0  0  0
   -0.9898   -1.7798    1.8396 O   0  0  0  0  0  0  0  0  0  0  0  0
   -6.1586    0.5305   -1.0525 O   0  0  0  0  0  0  0  0  0  0  0  0
    2.0818    0.3479   -0.2143 C   0  0  2  0  0  0  0  0  0  0  0  0
    3.5754   -0.0768   -0.2100 C   0  0  2  0  0  0  0  0  0  0  0  0
    2.0839    1.7722    0.4176 C   0  0  2  0  0  0  0  0  0  0  0  0
    4.2417    1.2472   -0.6305 C   0  0  0  0  0  0  0  0  0  0  0  0
    3.4954    2.3346    0.1423 C   0  0  0  0  0  0  0  0  0  0  0  0
    1.1148   -0.6855    0.3886 C   0  0  2  0  0  0  0  0  0  0  0  0
    1.0152    2.7012   -0.1626 C   0  0  0  0  0  0  0  0  0  0  0  0
    3.8671   -1.1738   -1.2543 C   0  0  0  0  0  0  0  0  0  0  0  0
    4.1242   -0.4994    1.1728 C   0  0  0  0  0  0  0  0  0  0  0  0
    0.9490   -1.9357   -0.4904 C   0  0  0  0  0  0  0  0  0  0  0  0
    3.3649   -2.5465   -0.9143 C   0  0  0  0  0  0  0  0  0  0  0  0
    2.1138   -2.8901   -0.5615 C   0  0  0  0  0  0  0  0  0  0  0  0
    1.0913    4.0773    0.4923 C   0  0  0  0  0  0  0  0  0  0  0  0
    1.1713    2.8147   -1.6764 C   0  0  0  0  0  0  0  0  0  0  0  0
    1.7837   -4.3268   -0.2538 C   0  0  0  0  0  0  0  0  0  0  0  0
   -1.1493   -0.8793    1.0302 C   0  0  0  0  0  0  0  0  0  0  0  0
   -2.4761   -0.5066    0.4777 C   0  0  0  0  0  0  0  0  0  0  0  0
   -3.5995   -0.6972    1.2560 C   0  0  0  0  0  0  0  0  0  0  0  0
   -2.5452    0.0191   -0.7964 C   0  0  0  0  0  0  0  0  0  0  0  0
   -4.8462   -0.3467    0.7378 C   0  0  0  0  0  0  0  0  0  0  0  0
   -3.7919    0.3697   -1.3145 C   0  0  0  0  0  0  0  0  0  0  0  0
   -4.9424    0.1868   -0.5474 C   0  0  0  0  0  0  0  0  0  0  0  0
   -7.2935    0.3188   -0.2140 C   0  0  0  0  0  0  0  0  0  0  0  0
    1.8042    0.4401   -1.2690 H   0  0  0  0  0  0  0  0  0  0  0  0
    4.1162    1.4175   -1.7076 H   0  0  0  0  0  0  0  0  0  0  0  0
    5.3168    1.2695   -0.4216 H   0  0  0  0  0  0  0  0  0  0  0  0
    4.0183    2.5306    1.0873 H   0  0  0  0  0  0  0  0  0  0  0  0
    3.5434    3.2687   -0.4221 H   0  0  0  0  0  0  0  0  0  0  0  0
    1.4430   -0.9671    1.3958 H   0  0  0  0  0  0  0  0  0  0  0  0
    0.0139    2.3143    0.0560 H   0  0  0  0  0  0  0  0  0  0  0  0
    4.9563   -1.2476   -1.3810 H   0  0  0  0  0  0  0  0  0  0  0  0
    3.4796   -0.8920   -2.2420 H   0  0  0  0  0  0  0  0  0  0  0  0
    3.6398   -1.4009    1.5589 H   0  0  0  0  0  0  0  0  0  0  0  0
    5.1977   -0.7138    1.1067 H   0  0  0  0  0  0  0  0  0  0  0  0
    4.0041    0.2781    1.9321 H   0  0  0  0  0  0  0  0  0  0  0  0
    0.6970   -1.6246   -1.5147 H   0  0  0  0  0  0  0  0  0  0  0  0
    0.0748   -2.5241   -0.1935 H   0  0  0  0  0  0  0  0  0  0  0  0
    4.1196   -3.3296   -0.9679 H   0  0  0  0  0  0  0  0  0  0  0  0
    0.9943    1.3954    2.0022 H   0  0  0  0  0  0  0  0  0  0  0  0
    2.0173    4.6134    0.2668 H   0  0  0  0  0  0  0  0  0  0  0  0
    0.2688    4.7068    0.1325 H   0  0  0  0  0  0  0  0  0  0  0  0
    0.9875    4.0183    1.5806 H   0  0  0  0  0  0  0  0  0  0  0  0
    2.1841    3.0380   -2.0176 H   0  0  0  0  0  0  0  0  0  0  0  0
    0.5349    3.6267   -2.0505 H   0  0  0  0  0  0  0  0  0  0  0  0
    0.8199    1.9182   -2.1951 H   0  0  0  0  0  0  0  0  0  0  0  0
    1.3960   -4.4145    0.7665 H   0  0  0  0  0  0  0  0  0  0  0  0
    2.6569   -4.9831   -0.3330 H   0  0  0  0  0  0  0  0  0  0  0  0
    1.0248   -4.6995   -0.9496 H   0  0  0  0  0  0  0  0  0  0  0  0
   -3.5358   -1.1083    2.2592 H   0  0  0  0  0  0  0  0  0  0  0  0
   -1.6667    0.1599   -1.4191 H   0  0  0  0  0  0  0  0  0  0  0  0
   -5.6985   -0.5143    1.3875 H   0  0  0  0  0  0  0  0  0  0  0  0
   -3.8610    0.7826   -2.3172 H   0  0  0  0  0  0  0  0  0  0  0  0
   -7.4350   -0.7438    0.0109 H   0  0  0  0  0  0  0  0  0  0  0  0
   -8.1751    0.6470   -0.7743 H   0  0  0  0  0  0  0  0  0  0  0  0
   -7.2442    0.9320    0.6923 H   0  0  0  0  0  0  0  0  0  0  0  0
  1  7  1  0  0  0  0
  1 43  1  0  0  0  0
  2 10  1  0  0  0  0
  2 20  1  0  0  0  0
  3 20  2  0  0  0  0
  4 26  1  0  0  0  0
  4 27  1  0  0  0  0
  5  6  1  0  0  0  0
  5  7  1  0  0  0  0
  5 10  1  0  0  0  0
  5 28  1  0  0  0  0
  6  8  1  0  0  0  0
  6 12  1  0  0  0  0
  6 13  1  0  0  0  0
  7  9  1  0  0  0  0
  7 11  1  0  0  0  0
  8  9  1  0  0  0  0
  8 29  1  0  0  0  0
  8 30  1  0  0  0  0
  9 31  1  0  0  0  0
  9 32  1  0  0  0  0
 10 14  1  0  0  0  0
 10 33  1  0  0  0  0
 11 17  1  0  0  0  0
 11 18  1  0  0  0  0
 11 34  1  0  0  0  0
 12 15  1  0  0  0  0
 12 35  1  0  0  0  0
 12 36  1  0  0  0  0
 13 37  1  0  0  0  0
 13 38  1  0  0  0  0
 13 39  1  0  0  0  0
 14 16  1  0  0  0  0
 14 40  1  0  0  0  0
 14 41  1  0  0  0  0
 15 16  2  0  0  0  0
 15 42  1  0  0  0  0
 16 19  1  0  0  0  0
 17 44  1  0  0  0  0
 17 45  1  0  0  0  0
 17 46  1  0  0  0  0
 18 47  1  0  0  0  0
 18 48  1  0  0  0  0
 18 49  1  0  0  0  0
 19 50  1  0  0  0  0
 19 51  1  0  0  0  0
 19 52  1  0  0  0  0
 20 21  1  0  0  0  0
 21 22  2  0  0  0  0
 21 23  1  0  0  0  0
 22 24  1  0  0  0  0
 22 53  1  0  0  0  0
 23 25  2  0  0  0  0
 23 54  1  0  0  0  0
 24 26  2  0  0  0  0
 24 55  1  0  0  0  0
 25 26  1  0  0  0  0
 25 56  1  0  0  0  0
 27 57  1  0  0  0  0
 27 58  1  0  0  0  0
 27 59  1  0  0  0  0
M  END
> <PUBCHEM_COMPOUND_CID>
10172562

> <PUBCHEM_CONFORMER_RMSD>
0.8

> <PUBCHEM_CONFORMER_DIVERSEORDER>
1
11
5
9
8
4
3
2
7
10
6

> <PUBCHEM_MMFF94_PARTIAL_CHARGES>
25
1 -0.68
10 0.28
12 0.14
14 0.14
15 -0.29
16 -0.28
19 0.14
2 -0.43
20 0.63
21 0.09
22 -0.15
23 -0.15
24 -0.15
25 -0.15
26 0.08
27 0.28
3 -0.57
4 -0.36
42 0.15
43 0.4
53 0.15
54 0.15
55 0.15
56 0.15
7 0.28

> <PUBCHEM_EFFECTIVE_ROTOR_COUNT>
6.2

> <PUBCHEM_PHARMACOPHORE_FEATURES>
8
1 1 acceptor
1 1 donor
1 3 acceptor
1 4 acceptor
3 11 17 18 hydrophobe
5 5 6 7 8 9 rings
6 21 22 23 24 25 26 rings
7 5 6 10 12 14 15 16 rings

> <PUBCHEM_HEAVY_ATOM_COUNT>
27

> <PUBCHEM_ATOM_DEF_STEREO_COUNT>
4

> <PUBCHEM_ATOM_UDEF_STEREO_COUNT>
0

> <PUBCHEM_BOND_DEF_STEREO_COUNT>
0

> <PUBCHEM_BOND_UDEF_STEREO_COUNT>
0

> <PUBCHEM_ISOTOPIC_ATOM_COUNT>
0

> <PUBCHEM_COMPONENT_COUNT>
1

> <PUBCHEM_CACTVS_TAUTO_COUNT>
1

> <PUBCHEM_CONFORMER_ID>
009B389200000001

> <PUBCHEM_MMFF94_ENERGY>
111.4198

> <PUBCHEM_FEATURE_SELFOVERLAP>
40.614

> <PUBCHEM_SHAPE_FINGERPRINT>
10165383 225 17257977051387148288
10411042 1 17979637836397918454
10693767 8 17917158187144649654
11135609 149 18050540990323265567
12236239 1 17131834244566966035
12730499 353 18408891745810793571
13134695 92 18343304773143589964
13402501 40 18113051649582926573
13533116 47 18202001019520514469
1361 2 18411695513420332063
13911987 19 18192459470547569502
14251757 17 18187925015410634469
14681490 219 18339923719269992197
15183329 4 16917072153621408513
15210252 30 17968107395406577852
15420108 30 17835503196684048576
1601671 61 18262522614827478252
16728300 4 17463661249383258986
17357779 13 18337391543721977996
17818456 19 16985767302823556161
1813 80 17701267927351660439
20511986 3 17131537406196922969
20645477 70 18410294717909496962
20775438 99 17256771548397907397
21033648 144 17971457736137742789
21033648 29 17895472652290140945
21285901 2 18114743724641474012
21860390 5 18410295821742362317
221357 26 18337389345052078925
22289505 5 18408319960697928013
23557571 272 17749682886778200603
23559900 14 18410012161007138227
3060560 45 18342460361340849230
3380486 77 17604149221243480898
350125 39 17619925280240370514
46194498 28 18040438814963052005
474 4 18341895237732835035
495365 180 18270674380760193024
508706 21 17895189944979738805
59682541 52 18340475661591129247
6443956 14 18411706478144680452
70251023 43 17913781522331884958
7399639 24 17399807484312145755
7471813 234 17774724151961858602
8509985 295 17749656446336839456

> <PUBCHEM_SHAPE_MULTIPOLES>
532.17
11.47
4.01
1.38
23.09
0.01
0.14
-0.3
-2.12
-5.47
-0.4
0.12
-0.1
1.16

> <PUBCHEM_SHAPE_SELFOVERLAP>
1126.079

> <PUBCHEM_SHAPE_VOLUME>
298.3

> <PUBCHEM_COORDINATE_TYPE>
2
5
10

$$$$
