354654
  -OEChem-02172602283D

 56 58  0     1  0  0  0  0  0999 V2000
    1.6322    1.6993    1.8319 O   0  0  0  0  0  0  0  0  0  0  0  0
   -0.4641   -0.0656    0.4967 O   0  0  0  0  0  0  0  0  0  0  0  0
   -1.3127   -1.7432    1.8251 O   0  0  0  0  0  0  0  0  0  0  0  0
   -6.4207    0.6439   -1.1123 O   0  0  0  0  0  0  0  0  0  0  0  0
    1.8084    0.3302   -0.2095 C   0  0  2  0  0  0  0  0  0  0  0  0
    3.2947   -0.1191   -0.1938 C   0  0  2  0  0  0  0  0  0  0  0  0
    1.8295    1.7553    0.4205 C   0  0  2  0  0  0  0  0  0  0  0  0
    3.9859    1.1931   -0.6113 C   0  0  0  0  0  0  0  0  0  0  0  0
    3.2521    2.2938    0.1545 C   0  0  0  0  0  0  0  0  0  0  0  0
    0.8201   -0.6861    0.3879 C   0  0  2  0  0  0  0  0  0  0  0  0
    0.7805    2.7009   -0.1688 C   0  0  0  0  0  0  0  0  0  0  0  0
    3.5758   -1.2224   -1.2344 C   0  0  0  0  0  0  0  0  0  0  0  0
    3.8265   -0.5486    1.1935 C   0  0  0  0  0  0  0  0  0  0  0  0
    0.6399   -1.9347   -0.4906 C   0  0  0  0  0  0  0  0  0  0  0  0
    3.0484   -2.5860   -0.8961 C   0  0  0  0  0  0  0  0  0  0  0  0
    1.7893   -2.9084   -0.5519 C   0  0  0  0  0  0  0  0  0  0  0  0
    0.9495    2.8096   -1.6816 C   0  0  0  0  0  0  0  0  0  0  0  0
    0.8748    4.0766    0.4846 C   0  0  0  0  0  0  0  0  0  0  0  0
    1.4333   -4.3389   -0.2446 C   0  0  0  0  0  0  0  0  0  0  0  0
   -1.4515   -0.8414    1.0133 C   0  0  0  0  0  0  0  0  0  0  0  0
   -2.7679   -0.4477    0.4507 C   0  0  0  0  0  0  0  0  0  0  0  0
   -3.9006   -0.6179    1.2202 C   0  0  0  0  0  0  0  0  0  0  0  0
   -2.8178    0.0762   -0.8250 C   0  0  0  0  0  0  0  0  0  0  0  0
   -5.1371   -0.2484    0.6911 C   0  0  0  0  0  0  0  0  0  0  0  0
   -4.0543    0.4459   -1.3541 C   0  0  0  0  0  0  0  0  0  0  0  0
   -5.2141    0.2835   -0.5961 C   0  0  0  0  0  0  0  0  0  0  0  0
    1.5400    0.4255   -1.2663 H   0  0  0  0  0  0  0  0  0  0  0  0
    3.8710    1.3637   -1.6895 H   0  0  0  0  0  0  0  0  0  0  0  0
    5.0596    1.1979   -0.3946 H   0  0  0  0  0  0  0  0  0  0  0  0
    3.7713    2.4825    1.1030 H   0  0  0  0  0  0  0  0  0  0  0  0
    3.3197    3.2261   -0.4108 H   0  0  0  0  0  0  0  0  0  0  0  0
    1.1363   -0.9716    1.3978 H   0  0  0  0  0  0  0  0  0  0  0  0
   -0.2286    2.3310    0.0430 H   0  0  0  0  0  0  0  0  0  0  0  0
    4.6644   -1.3144   -1.3531 H   0  0  0  0  0  0  0  0  0  0  0  0
    3.2000   -0.9357   -2.2252 H   0  0  0  0  0  0  0  0  0  0  0  0
    3.3245   -1.4413    1.5774 H   0  0  0  0  0  0  0  0  0  0  0  0
    4.8967   -0.7808    1.1355 H   0  0  0  0  0  0  0  0  0  0  0  0
    3.7138    0.2319    1.9508 H   0  0  0  0  0  0  0  0  0  0  0  0
    0.4005   -1.6211   -1.5171 H   0  0  0  0  0  0  0  0  0  0  0  0
   -0.2459   -2.5081   -0.1992 H   0  0  0  0  0  0  0  0  0  0  0  0
    3.7904   -3.3816   -0.9431 H   0  0  0  0  0  0  0  0  0  0  0  0
    0.7225    1.3990    1.9977 H   0  0  0  0  0  0  0  0  0  0  0  0
    1.9683    3.0156   -2.0158 H   0  0  0  0  0  0  0  0  0  0  0  0
    0.3294    3.6314   -2.0615 H   0  0  0  0  0  0  0  0  0  0  0  0
    0.5871    1.9181   -2.2016 H   0  0  0  0  0  0  0  0  0  0  0  0
    1.8111    4.5969    0.2652 H   0  0  0  0  0  0  0  0  0  0  0  0
    0.0654    4.7191    0.1181 H   0  0  0  0  0  0  0  0  0  0  0  0
    0.7622    4.0210    1.5722 H   0  0  0  0  0  0  0  0  0  0  0  0
    0.6733   -4.7000   -0.9454 H   0  0  0  0  0  0  0  0  0  0  0  0
    1.0368   -4.4187    0.7731 H   0  0  0  0  0  0  0  0  0  0  0  0
    2.2960   -5.0097   -0.3165 H   0  0  0  0  0  0  0  0  0  0  0  0
   -3.8528   -1.0277    2.2248 H   0  0  0  0  0  0  0  0  0  0  0  0
   -1.9322    0.2009   -1.4409 H   0  0  0  0  0  0  0  0  0  0  0  0
   -6.0330   -0.3792    1.2921 H   0  0  0  0  0  0  0  0  0  0  0  0
   -4.1084    0.8572   -2.3584 H   0  0  0  0  0  0  0  0  0  0  0  0
   -7.1123    0.4629   -0.4527 H   0  0  0  0  0  0  0  0  0  0  0  0
  1  7  1  0  0  0  0
  1 42  1  0  0  0  0
  2 10  1  0  0  0  0
  2 20  1  0  0  0  0
  3 20  2  0  0  0  0
  4 26  1  0  0  0  0
  4 56  1  0  0  0  0
  5  6  1  0  0  0  0
  5  7  1  0  0  0  0
  5 10  1  0  0  0  0
  5 27  1  0  0  0  0
  6  8  1  0  0  0  0
  6 12  1  0  0  0  0
  6 13  1  0  0  0  0
  7  9  1  0  0  0  0
  7 11  1  0  0  0  0
  8  9  1  0  0  0  0
  8 28  1  0  0  0  0
  8 29  1  0  0  0  0
  9 30  1  0  0  0  0
  9 31  1  0  0  0  0
 10 14  1  0  0  0  0
 10 32  1  0  0  0  0
 11 17  1  0  0  0  0
 11 18  1  0  0  0  0
 11 33  1  0  0  0  0
 12 15  1  0  0  0  0
 12 34  1  0  0  0  0
 12 35  1  0  0  0  0
 13 36  1  0  0  0  0
 13 37  1  0  0  0  0
 13 38  1  0  0  0  0
 14 16  1  0  0  0  0
 14 39  1  0  0  0  0
 14 40  1  0  0  0  0
 15 16  2  0  0  0  0
 15 41  1  0  0  0  0
 16 19  1  0  0  0  0
 17 43  1  0  0  0  0
 17 44  1  0  0  0  0
 17 45  1  0  0  0  0
 18 46  1  0  0  0  0
 18 47  1  0  0  0  0
 18 48  1  0  0  0  0
 19 49  1  0  0  0  0
 19 50  1  0  0  0  0
 19 51  1  0  0  0  0
 20 21  1  0  0  0  0
 21 22  2  0  0  0  0
 21 23  1  0  0  0  0
 22 24  1  0  0  0  0
 22 52  1  0  0  0  0
 23 25  2  0  0  0  0
 23 53  1  0  0  0  0
 24 26  2  0  0  0  0
 24 54  1  0  0  0  0
 25 26  1  0  0  0  0
 25 55  1  0  0  0  0
M  END
> <PUBCHEM_COMPOUND_CID>
354654

> <PUBCHEM_CONFORMER_RMSD>
0.8

> <PUBCHEM_CONFORMER_DIVERSEORDER>
1
5
6
4
7
3
2

> <PUBCHEM_MMFF94_PARTIAL_CHARGES>
25
1 -0.68
10 0.28
12 0.14
14 0.14
15 -0.29
16 -0.28
19 0.14
2 -0.43
20 0.63
21 0.09
22 -0.15
23 -0.15
24 -0.15
25 -0.15
26 0.08
3 -0.57
4 -0.53
41 0.15
42 0.4
52 0.15
53 0.15
54 0.15
55 0.15
56 0.45
7 0.28

> <PUBCHEM_EFFECTIVE_ROTOR_COUNT>
5.2

> <PUBCHEM_PHARMACOPHORE_FEATURES>
8
1 1 acceptor
1 1 donor
1 3 acceptor
1 4 donor
3 11 17 18 hydrophobe
5 5 6 7 8 9 rings
6 21 22 23 24 25 26 rings
7 5 6 10 12 14 15 16 rings

> <PUBCHEM_HEAVY_ATOM_COUNT>
26

> <PUBCHEM_ATOM_DEF_STEREO_COUNT>
4

> <PUBCHEM_ATOM_UDEF_STEREO_COUNT>
0

> <PUBCHEM_BOND_DEF_STEREO_COUNT>
0

> <PUBCHEM_BOND_UDEF_STEREO_COUNT>
0

> <PUBCHEM_ISOTOPIC_ATOM_COUNT>
0

> <PUBCHEM_COMPONENT_COUNT>
1

> <PUBCHEM_CACTVS_TAUTO_COUNT>
3

> <PUBCHEM_CONFORMER_ID>
0005695E00000001

> <PUBCHEM_MMFF94_ENERGY>
99.1019

> <PUBCHEM_FEATURE_SELFOVERLAP>
40.614

> <PUBCHEM_SHAPE_FINGERPRINT>
10165383 225 17257975947469796425
10693767 8 17917155992353057894
116883 192 18267027141951279428
12236239 1 17060340699672353343
12730499 353 18409173225172135811
13134695 92 18343303669141842068
13140716 1 18269551809458526346
13402501 40 18113896070186410277
13911987 19 18192459474773945542
14251757 17 18115585933632367821
15081414 286 18339092561172149040
15210252 30 17968389956872851348
15420108 30 17836066142289722640
1601671 61 18261958565241207308
16728300 4 17463941624790313106
17093844 170 18335135384637923292
17357779 13 18337955588818148300
17818456 19 16985766199164673625
1813 80 17701829773519618231
20511986 3 17131538492918562049
20567600 299 18341328980860934641
20645477 70 18410296921122211827
20775438 99 17257053027817239437
21033648 29 17895188961279142913
21285901 2 18187643540222778268
21860390 5 18410294718067642557
221357 26 18337387137560247149
22289505 5 18335979779450283645
23419403 2 17483928533910612874
23559900 14 18409171030137541691
238 59 18271812379442546314
3060560 45 18342460356924556150
3380486 77 17604148117331390786
350125 39 17691981774608421610
46194498 28 17968386748685008453
474 4 18341894134026544643
495365 180 18270955859931696176
508706 21 17822848672710168029
59682541 52 18268413660995779599
6443956 14 18411706473691477068
70251023 43 17913781513588995518
7399639 24 17399526009514679217
7471813 234 17774441572999250210
81228 2 18046638802271004856
8509985 295 17749655338082289792

> <PUBCHEM_SHAPE_MULTIPOLES>
511.59
9.65
4.14
1.41
16.02
0.13
0.12
-0.12
-1.82
-4.69
-0.45
0.38
-0.14
1.19

> <PUBCHEM_SHAPE_SELFOVERLAP>
1087.162

> <PUBCHEM_SHAPE_VOLUME>
285.1

> <PUBCHEM_COORDINATE_TYPE>
2
5
10

$$$$
