10115045
  -OEChem-02172602513D

 64 67  0     1  0  0  0  0  0999 V2000
    0.7492   -0.7554   -1.1142 O   0  0  0  0  0  0  0  0  0  0  0  0
    4.9987   -0.1336   -2.8965 O   0  0  0  0  0  0  0  0  0  0  0  0
    5.8127    0.0831   -0.7891 O   0  0  0  0  0  0  0  0  0  0  0  0
   -0.8773    4.2457    1.7650 O   0  0  0  0  0  0  0  0  0  0  0  0
    2.6138   -0.7514    0.3217 N   0  0  0  0  0  0  0  0  0  0  0  0
    1.4199   -2.6590    0.0999 N   0  0  0  0  0  0  0  0  0  0  0  0
   -2.1156    0.6180   -1.0631 N   0  0  0  0  0  0  0  0  0  0  0  0
   -1.7292   -1.2102    0.3179 N   0  0  0  0  0  0  0  0  0  0  0  0
    0.1741    3.0376    0.0859 N   0  0  0  0  0  0  0  0  0  0  0  0
    3.3087   -1.7149    1.1498 C   0  0  0  0  0  0  0  0  0  0  0  0
    2.4529   -2.9713    1.0731 C   0  0  0  0  0  0  0  0  0  0  0  0
    3.0878    0.6063    0.1659 C   0  0  1  0  0  0  0  0  0  0  0  0
    1.5025   -1.3165   -0.3286 C   0  0  0  0  0  0  0  0  0  0  0  0
    0.4213   -3.6151   -0.2921 C   0  0  0  0  0  0  0  0  0  0  0  0
   -0.3673   -4.1624    0.8961 C   0  0  0  0  0  0  0  0  0  0  0  0
    3.5460    0.8337   -1.2843 C   0  0  0  0  0  0  0  0  0  0  0  0
    2.0299    1.5875    0.6321 C   0  0  0  0  0  0  0  0  0  0  0  0
   -1.1067   -3.0861    1.7143 C   0  0  0  0  0  0  0  0  0  0  0  0
   -2.1407   -2.3311    0.9486 C   0  0  0  0  0  0  0  0  0  0  0  0
   -5.0663   -0.0895   -1.1720 C   0  0  0  0  0  0  0  0  0  0  0  0
   -4.9599    1.4229   -0.9833 C   0  0  0  0  0  0  0  0  0  0  0  0
   -3.9817   -0.8677   -0.4593 C   0  0  0  0  0  0  0  0  0  0  0  0
   -3.9121    2.0895   -1.8734 C   0  0  0  0  0  0  0  0  0  0  0  0
   -2.6297   -0.4877   -0.4063 C   0  0  0  0  0  0  0  0  0  0  0  0
   -2.7231    1.2118   -2.2327 C   0  0  0  0  0  0  0  0  0  0  0  0
    1.9208    1.9404    1.9726 C   0  0  0  0  0  0  0  0  0  0  0  0
    1.1404    2.1589   -0.2636 C   0  0  0  0  0  0  0  0  0  0  0  0
    4.8988    0.2248   -1.5894 C   0  0  0  0  0  0  0  0  0  0  0  0
   -3.4343   -2.7981    0.9121 C   0  0  0  0  0  0  0  0  0  0  0  0
   -4.3589   -2.0523    0.1979 C   0  0  0  0  0  0  0  0  0  0  0  0
    0.9394    2.8413    2.3708 C   0  0  0  0  0  0  0  0  0  0  0  0
    0.0986    3.3567    1.3975 C   0  0  0  0  0  0  0  0  0  0  0  0
   -1.7128    4.7441    0.7270 C   0  0  0  0  0  0  0  0  0  0  0  0
    4.3089   -1.8840    0.7394 H   0  0  0  0  0  0  0  0  0  0  0  0
    3.3916   -1.3363    2.1729 H   0  0  0  0  0  0  0  0  0  0  0  0
    3.0269   -3.8402    0.7378 H   0  0  0  0  0  0  0  0  0  0  0  0
    1.9957   -3.1880    2.0428 H   0  0  0  0  0  0  0  0  0  0  0  0
    3.9560    0.7322    0.8267 H   0  0  0  0  0  0  0  0  0  0  0  0
    0.9416   -4.4400   -0.7922 H   0  0  0  0  0  0  0  0  0  0  0  0
   -0.2467   -3.1643   -1.0331 H   0  0  0  0  0  0  0  0  0  0  0  0
   -1.0945   -4.8932    0.5202 H   0  0  0  0  0  0  0  0  0  0  0  0
    0.3013   -4.7135    1.5681 H   0  0  0  0  0  0  0  0  0  0  0  0
    3.6650    1.9064   -1.4850 H   0  0  0  0  0  0  0  0  0  0  0  0
    2.8220    0.4419   -2.0073 H   0  0  0  0  0  0  0  0  0  0  0  0
   -1.5751   -3.5677    2.5826 H   0  0  0  0  0  0  0  0  0  0  0  0
   -0.3860   -2.3748    2.1365 H   0  0  0  0  0  0  0  0  0  0  0  0
   -6.0404   -0.3921   -0.7656 H   0  0  0  0  0  0  0  0  0  0  0  0
   -5.0793   -0.3615   -2.2338 H   0  0  0  0  0  0  0  0  0  0  0  0
   -4.7447    1.6532    0.0684 H   0  0  0  0  0  0  0  0  0  0  0  0
   -5.9316    1.8835   -1.2013 H   0  0  0  0  0  0  0  0  0  0  0  0
   -4.3912    2.4055   -2.8088 H   0  0  0  0  0  0  0  0  0  0  0  0
   -3.5710    3.0095   -1.3867 H   0  0  0  0  0  0  0  0  0  0  0  0
   -2.9982    0.4394   -2.9609 H   0  0  0  0  0  0  0  0  0  0  0  0
   -1.9733    1.8366   -2.7326 H   0  0  0  0  0  0  0  0  0  0  0  0
    2.5925    1.5185    2.7150 H   0  0  0  0  0  0  0  0  0  0  0  0
    1.1540    1.9352   -1.3245 H   0  0  0  0  0  0  0  0  0  0  0  0
   -3.7353   -3.7065    1.4216 H   0  0  0  0  0  0  0  0  0  0  0  0
   -1.1278    0.7903   -0.9148 H   0  0  0  0  0  0  0  0  0  0  0  0
   -5.3912   -2.3937    0.1652 H   0  0  0  0  0  0  0  0  0  0  0  0
    0.8405    3.1261    3.4125 H   0  0  0  0  0  0  0  0  0  0  0  0
    5.8769   -0.5183   -3.1036 H   0  0  0  0  0  0  0  0  0  0  0  0
   -1.1292    5.2838   -0.0261 H   0  0  0  0  0  0  0  0  0  0  0  0
   -2.2861    3.9325    0.2713 H   0  0  0  0  0  0  0  0  0  0  0  0
   -2.4212    5.4482    1.1734 H   0  0  0  0  0  0  0  0  0  0  0  0
  1 13  2  0  0  0  0
  2 28  1  0  0  0  0
  2 61  1  0  0  0  0
  3 28  2  0  0  0  0
  4 32  1  0  0  0  0
  4 33  1  0  0  0  0
  5 10  1  0  0  0  0
  5 12  1  0  0  0  0
  5 13  1  0  0  0  0
  6 11  1  0  0  0  0
  6 13  1  0  0  0  0
  6 14  1  0  0  0  0
  7 24  1  0  0  0  0
  7 25  1  0  0  0  0
  7 58  1  0  0  0  0
  8 19  2  0  0  0  0
  8 24  1  0  0  0  0
  9 27  1  0  0  0  0
  9 32  2  0  0  0  0
 10 11  1  0  0  0  0
 10 34  1  0  0  0  0
 10 35  1  0  0  0  0
 11 36  1  0  0  0  0
 11 37  1  0  0  0  0
 12 16  1  0  0  0  0
 12 17  1  0  0  0  0
 12 38  1  0  0  0  0
 14 15  1  0  0  0  0
 14 39  1  0  0  0  0
 14 40  1  0  0  0  0
 15 18  1  0  0  0  0
 15 41  1  0  0  0  0
 15 42  1  0  0  0  0
 16 28  1  0  0  0  0
 16 43  1  0  0  0  0
 16 44  1  0  0  0  0
 17 26  1  0  0  0  0
 17 27  2  0  0  0  0
 18 19  1  0  0  0  0
 18 45  1  0  0  0  0
 18 46  1  0  0  0  0
 19 29  1  0  0  0  0
 20 21  1  0  0  0  0
 20 22  1  0  0  0  0
 20 47  1  0  0  0  0
 20 48  1  0  0  0  0
 21 23  1  0  0  0  0
 21 49  1  0  0  0  0
 21 50  1  0  0  0  0
 22 24  2  0  0  0  0
 22 30  1  0  0  0  0
 23 25  1  0  0  0  0
 23 51  1  0  0  0  0
 23 52  1  0  0  0  0
 25 53  1  0  0  0  0
 25 54  1  0  0  0  0
 26 31  2  0  0  0  0
 26 55  1  0  0  0  0
 27 56  1  0  0  0  0
 29 30  2  0  0  0  0
 29 57  1  0  0  0  0
 30 59  1  0  0  0  0
 31 32  1  0  0  0  0
 31 60  1  0  0  0  0
 33 62  1  0  0  0  0
 33 63  1  0  0  0  0
 33 64  1  0  0  0  0
M  END
> <PUBCHEM_COMPOUND_CID>
10115045

> <PUBCHEM_CONFORMER_RMSD>
1.4

> <PUBCHEM_CONFORMER_DIVERSEORDER>
1
80
10
29
40
7
97
59
110
100
69
33
24
77
64
96
120
8
54
83
108
95
90
124
88
87
105
51
9
71
36
16
46
81
111
72
103
26
122
113
22
23
53
38
48
116
21
70
106
42
13
65
86
94
18
91
39
79
19
67
98
102
119
11
57
34
101
5
44
114
2
43
50
60
58
47
82
76
112
15
28
118
74
84
56
107
85
93
41
52
17
75
92
30
123
115
3
104
117
20
99
12
62
45
89
25
55
49
14
109
37
27
4
66
78
31
121
6
68
32
63
35
73
61

> <PUBCHEM_MMFF94_PARTIAL_CHARGES>
37
1 -0.57
10 0.3
11 0.3
12 0.44
13 0.69
14 0.3
16 0.06
17 -0.14
18 0.14
19 0.17
2 -0.65
20 0.14
22 -0.14
24 0.41
25 0.37
26 -0.15
27 0.16
28 0.66
29 -0.15
3 -0.57
30 -0.15
31 -0.15
32 0.39
33 0.28
4 -0.36
5 -0.66
55 0.15
56 0.15
57 0.15
58 0.4
59 0.15
6 -0.66
60 0.15
61 0.5
7 -0.87
8 -0.62
9 -0.62

> <PUBCHEM_EFFECTIVE_ROTOR_COUNT>
10.8

> <PUBCHEM_PHARMACOPHORE_FEATURES>
11
1 1 acceptor
1 2 acceptor
1 3 acceptor
1 7 cation
1 7 donor
1 8 acceptor
3 2 3 28 anion
5 5 6 10 11 13 rings
6 8 19 22 24 29 30 rings
6 9 17 26 27 31 32 rings
7 7 20 21 22 23 24 25 rings

> <PUBCHEM_HEAVY_ATOM_COUNT>
33

> <PUBCHEM_ATOM_DEF_STEREO_COUNT>
0

> <PUBCHEM_ATOM_UDEF_STEREO_COUNT>
1

> <PUBCHEM_BOND_DEF_STEREO_COUNT>
0

> <PUBCHEM_BOND_UDEF_STEREO_COUNT>
0

> <PUBCHEM_ISOTOPIC_ATOM_COUNT>
0

> <PUBCHEM_COMPONENT_COUNT>
1

> <PUBCHEM_CACTVS_TAUTO_COUNT>
3

> <PUBCHEM_CONFORMER_ID>
009A57E500000001

> <PUBCHEM_MMFF94_ENERGY>
87.2937

> <PUBCHEM_FEATURE_SELFOVERLAP>
55.89

> <PUBCHEM_SHAPE_FINGERPRINT>
10190206 1 18265920024632449836
10366900 7 18335133254407932919
10653451 467 17695337467155000064
10675989 125 18266443318425846145
1100329 8 17044280975297301001
12100795 323 17329414564259632737
12156800 1 17401444231940057731
12553582 1 18343026562125655921
12788726 201 18128254484901079905
13402501 40 18336826510704013231
140371 6 17977379434987358042
14347329 18 18113336448558076782
14725015 67 17974267014274854403
14866123 147 16394920347199388691
14931854 50 18338229363224374901
15324884 4 17540532852771203371
17977149 70 17826803825897754044
20764821 26 18337094723037771097
22393880 68 18341890852576916527
23536364 44 18339658775569182422
23558518 356 17836086671668498450
23559900 14 18044651134567150901
25019877 29 14315147558958116748
3298306 158 18336818771146871031
508706 21 18120080934392664471
6287921 2 16967746741020166651
6823239 73 18264764531309440400

> <PUBCHEM_SHAPE_MULTIPOLES>
630.74
9.28
5.85
2.11
0.27
1.48
-0.36
-0.44
-6.02
-2.04
3.78
1.12
1.24
1.44

> <PUBCHEM_SHAPE_SELFOVERLAP>
1336.247

> <PUBCHEM_SHAPE_VOLUME>
349

> <PUBCHEM_COORDINATE_TYPE>
2
5
10

$$$$
