179577
  -OEChem-02172602283D

 58 61  0     1  0  0  0  0  0999 V2000
    5.4811    2.9627   -1.0770 O   0  0  0  0  0  0  0  0  0  0  0  0
   -0.9295   -1.5829   -0.0475 O   0  0  0  0  0  0  0  0  0  0  0  0
   -4.6562    1.2324    0.9896 O   0  0  0  0  0  0  0  0  0  0  0  0
   -6.4493    2.5733    1.4713 O   0  0  0  0  0  0  0  0  0  0  0  0
    2.4314    0.1888    0.3282 C   0  0  2  0  0  0  0  0  0  0  0  0
    3.8452   -0.3484   -0.1064 C   0  0  1  0  0  0  0  0  0  0  0  0
    5.0108    0.7050   -0.2389 C   0  0  0  0  0  0  0  0  0  0  0  0
    1.3744   -0.9528   -0.0089 C   0  0  1  0  0  0  0  0  0  0  0  0
    2.0875    1.4589   -0.4938 C   0  0  0  0  0  0  0  0  0  0  0  0
    4.4975    1.9292   -1.0491 C   0  0  1  0  0  0  0  0  0  0  0  0
    3.1947    2.5044   -0.5036 C   0  0  0  0  0  0  0  0  0  0  0  0
    4.2163   -1.6048    0.7105 C   0  0  0  0  0  0  0  0  0  0  0  0
    2.3519    0.5369    1.8358 C   0  0  0  0  0  0  0  0  0  0  0  0
    1.8240   -2.3426    0.4469 C   0  0  0  0  0  0  0  0  0  0  0  0
    6.1780    0.0704   -1.0467 C   0  0  0  0  0  0  0  0  0  0  0  0
    5.6313    1.1537    1.1027 C   0  0  0  0  0  0  0  0  0  0  0  0
    3.0994   -2.6019    0.7852 C   0  0  0  0  0  0  0  0  0  0  0  0
   -0.0457   -0.6220    0.4881 C   0  0  0  0  0  0  0  0  0  0  0  0
    0.8095   -3.4545    0.4515 C   0  0  0  0  0  0  0  0  0  0  0  0
   -2.2180   -1.1772   -0.3048 C   0  0  0  0  0  0  0  0  0  0  0  0
   -2.7876   -0.1787    0.4703 C   0  0  0  0  0  0  0  0  0  0  0  0
   -2.9286   -1.7749   -1.3392 C   0  0  0  0  0  0  0  0  0  0  0  0
   -4.0942    0.2158    0.1906 C   0  0  0  0  0  0  0  0  0  0  0  0
   -4.2388   -1.3689   -1.6085 C   0  0  0  0  0  0  0  0  0  0  0  0
   -4.8304   -0.3647   -0.8388 C   0  0  0  0  0  0  0  0  0  0  0  0
   -6.1882    0.0951   -1.0750 C   0  0  0  0  0  0  0  0  0  0  0  0
   -5.9535    1.6890    0.7815 C   0  0  0  0  0  0  0  0  0  0  0  0
   -6.7132    1.0587   -0.3142 C   0  0  0  0  0  0  0  0  0  0  0  0
    3.6965   -0.7065   -1.1400 H   0  0  0  0  0  0  0  0  0  0  0  0
    1.3108   -1.0325   -1.1057 H   0  0  0  0  0  0  0  0  0  0  0  0
    1.1766    1.9350   -0.1134 H   0  0  0  0  0  0  0  0  0  0  0  0
    1.8745    1.1761   -1.5333 H   0  0  0  0  0  0  0  0  0  0  0  0
    4.3199    1.6313   -2.0913 H   0  0  0  0  0  0  0  0  0  0  0  0
    2.8876    3.3523   -1.1292 H   0  0  0  0  0  0  0  0  0  0  0  0
    3.3443    2.9303    0.4947 H   0  0  0  0  0  0  0  0  0  0  0  0
    4.5108   -1.3494    1.7331 H   0  0  0  0  0  0  0  0  0  0  0  0
    5.0710   -2.1086    0.2471 H   0  0  0  0  0  0  0  0  0  0  0  0
    1.3814    0.9773    2.0905 H   0  0  0  0  0  0  0  0  0  0  0  0
    2.4830   -0.3403    2.4760 H   0  0  0  0  0  0  0  0  0  0  0  0
    3.0915    1.2748    2.1391 H   0  0  0  0  0  0  0  0  0  0  0  0
    6.6253   -0.7753   -0.5144 H   0  0  0  0  0  0  0  0  0  0  0  0
    5.8348   -0.2913   -2.0224 H   0  0  0  0  0  0  0  0  0  0  0  0
    6.9890    0.7839   -1.2272 H   0  0  0  0  0  0  0  0  0  0  0  0
    4.9701    1.7927    1.6870 H   0  0  0  0  0  0  0  0  0  0  0  0
    5.9253    0.3037    1.7248 H   0  0  0  0  0  0  0  0  0  0  0  0
    6.5438    1.7398    0.9365 H   0  0  0  0  0  0  0  0  0  0  0  0
    3.3788   -3.6010    1.1110 H   0  0  0  0  0  0  0  0  0  0  0  0
   -0.1021   -0.6674    1.5817 H   0  0  0  0  0  0  0  0  0  0  0  0
   -0.3088    0.3854    0.1504 H   0  0  0  0  0  0  0  0  0  0  0  0
    6.1868    2.6887   -1.6859 H   0  0  0  0  0  0  0  0  0  0  0  0
    0.3307   -3.5578   -0.5272 H   0  0  0  0  0  0  0  0  0  0  0  0
    1.2849   -4.4228    0.6518 H   0  0  0  0  0  0  0  0  0  0  0  0
    0.0653   -3.3193    1.2418 H   0  0  0  0  0  0  0  0  0  0  0  0
   -2.2699    0.2877    1.3022 H   0  0  0  0  0  0  0  0  0  0  0  0
   -2.4733   -2.5564   -1.9412 H   0  0  0  0  0  0  0  0  0  0  0  0
   -4.7845   -1.8438   -2.4199 H   0  0  0  0  0  0  0  0  0  0  0  0
   -6.7648   -0.3549   -1.8756 H   0  0  0  0  0  0  0  0  0  0  0  0
   -7.7260    1.4074   -0.4845 H   0  0  0  0  0  0  0  0  0  0  0  0
  1 10  1  0  0  0  0
  1 50  1  0  0  0  0
  2 18  1  0  0  0  0
  2 20  1  0  0  0  0
  3 23  1  0  0  0  0
  3 27  1  0  0  0  0
  4 27  2  0  0  0  0
  5  6  1  0  0  0  0
  5  8  1  0  0  0  0
  5  9  1  0  0  0  0
  5 13  1  0  0  0  0
  6  7  1  0  0  0  0
  6 12  1  0  0  0  0
  6 29  1  0  0  0  0
  7 10  1  0  0  0  0
  7 15  1  0  0  0  0
  7 16  1  0  0  0  0
  8 14  1  0  0  0  0
  8 18  1  0  0  0  0
  8 30  1  0  0  0  0
  9 11  1  0  0  0  0
  9 31  1  0  0  0  0
  9 32  1  0  0  0  0
 10 11  1  0  0  0  0
 10 33  1  0  0  0  0
 11 34  1  0  0  0  0
 11 35  1  0  0  0  0
 12 17  1  0  0  0  0
 12 36  1  0  0  0  0
 12 37  1  0  0  0  0
 13 38  1  0  0  0  0
 13 39  1  0  0  0  0
 13 40  1  0  0  0  0
 14 17  2  0  0  0  0
 14 19  1  0  0  0  0
 15 41  1  0  0  0  0
 15 42  1  0  0  0  0
 15 43  1  0  0  0  0
 16 44  1  0  0  0  0
 16 45  1  0  0  0  0
 16 46  1  0  0  0  0
 17 47  1  0  0  0  0
 18 48  1  0  0  0  0
 18 49  1  0  0  0  0
 19 51  1  0  0  0  0
 19 52  1  0  0  0  0
 19 53  1  0  0  0  0
 20 21  2  0  0  0  0
 20 22  1  0  0  0  0
 21 23  1  0  0  0  0
 21 54  1  0  0  0  0
 22 24  2  0  0  0  0
 22 55  1  0  0  0  0
 23 25  2  0  0  0  0
 24 25  1  0  0  0  0
 24 56  1  0  0  0  0
 25 26  1  0  0  0  0
 26 28  2  0  0  0  0
 26 57  1  0  0  0  0
 27 28  1  0  0  0  0
 28 58  1  0  0  0  0
M  END
> <PUBCHEM_COMPOUND_CID>
179577

> <PUBCHEM_CONFORMER_RMSD>
0.8

> <PUBCHEM_CONFORMER_DIVERSEORDER>
13
25
15
19
24
17
2
22
23
18
9
5
14
16
21
11
1
20
8
12
10
3
7
6
4

> <PUBCHEM_MMFF94_PARTIAL_CHARGES>
27
1 -0.68
10 0.28
12 0.14
14 -0.28
17 -0.29
18 0.28
19 0.14
2 -0.36
20 0.08
21 -0.15
22 -0.15
23 0.08
24 -0.15
25 0.03
26 -0.18
27 0.71
28 -0.14
3 -0.23
4 -0.57
47 0.15
50 0.4
54 0.15
55 0.15
56 0.15
57 0.15
58 0.15
8 0.14

> <PUBCHEM_EFFECTIVE_ROTOR_COUNT>
4.2

> <PUBCHEM_PHARMACOPHORE_FEATURES>
9
1 1 acceptor
1 1 donor
1 2 acceptor
1 4 acceptor
3 7 15 16 hydrophobe
6 20 21 22 23 24 25 rings
6 3 23 25 26 27 28 rings
6 5 6 7 9 10 11 rings
6 5 6 8 12 14 17 rings

> <PUBCHEM_HEAVY_ATOM_COUNT>
28

> <PUBCHEM_ATOM_DEF_STEREO_COUNT>
4

> <PUBCHEM_ATOM_UDEF_STEREO_COUNT>
0

> <PUBCHEM_BOND_DEF_STEREO_COUNT>
0

> <PUBCHEM_BOND_UDEF_STEREO_COUNT>
0

> <PUBCHEM_ISOTOPIC_ATOM_COUNT>
0

> <PUBCHEM_COMPONENT_COUNT>
1

> <PUBCHEM_CACTVS_TAUTO_COUNT>
1

> <PUBCHEM_CONFORMER_ID>
0002BD790000000D

> <PUBCHEM_MMFF94_ENERGY>
110.6918

> <PUBCHEM_FEATURE_SELFOVERLAP>
45.714

> <PUBCHEM_SHAPE_FINGERPRINT>
10 15 15864075377209327031
10411042 1 17757826737588459394
10483366 6 18337967692980546110
10554248 39 18057310696679718351
10595046 47 18412539946972007975
10670039 82 18202563956589566689
10675989 125 18334577984357449772
10906281 52 18187935031780692740
1200032 147 17749679597044287196
12236239 1 18272365356830007503
12788726 201 17560245708930050009
13690498 29 17487608857153879015
13782708 43 13470691438356984957
13785724 45 17763744286845038843
13878862 14 18116690981515258373
14394314 77 18343024355156791201
14528608 73 18341326768704415743
14790565 3 18335987561889053236
14840074 17 17967253126247632797
15081414 286 17967533462973470964
15183329 4 18409727365572438405
15188451 53 11819274486231643697
15238133 3 18059848433371539090
15326921 28 16615031124903509920
1577012 14 18271804584793906601
1601671 61 18186797011418008238
18608769 82 18266742570704627419
20511986 3 18200861916525689769
20612939 158 18408318865333795087
20715895 44 18337107977776585112
21033648 144 18041271149644524615
21033650 10 15913059673010940907
21298829 104 18411417332578094024
21315764 119 17489315161370512310
21781055 127 16486140466573251627
22122407 14 18410303492965708345
22393880 68 17703218628640996155
23559900 14 16271636888706290019
3004659 81 18201719514278988430
335352 9 18335140904456707118
34797466 226 15912755198030620715
38570 142 18337966639652865535
394071 54 17822013107548124077
397830 11 17895772746535122899
4073 2 18040438832169411659
4340502 62 15574708097903451154
44880568 143 14979665569331947257
474 4 18334852827281968403
497634 4 18335128844004164463
504579 68 18201986751781647831
5104073 3 17895190038751523378
513532 50 17489863843848679450
57724786 102 18260832587507449447
6328613 192 18413672421819587917
8272917 22 18409446964638563182

> <PUBCHEM_SHAPE_MULTIPOLES>
552.75
17.53
3.09
1.33
16.12
0.54
0.05
-11.31
-1.46
-1.95
0.17
0.34
-0.26
-3

> <PUBCHEM_SHAPE_SELFOVERLAP>
1186.695

> <PUBCHEM_SHAPE_VOLUME>
303

> <PUBCHEM_COORDINATE_TYPE>
2
5
10

$$$$
