16212170
  -OEChem-02172602503D

 50 52  0     0  0  0  0  0  0999 V2000
    5.0641   -1.6441    0.0007 N   0  0  0  0  0  0  0  0  0  0  0  0
   -4.4556   -2.5328    0.0010 N   0  3  0  0  0  0  0  0  0  0  0  0
   -0.0957    0.7462   -0.0009 C   0  0  0  0  0  0  0  0  0  0  0  0
    1.2537    0.1226   -0.0003 C   0  0  0  0  0  0  0  0  0  0  0  0
   -1.1692   -0.0612   -0.0009 C   0  0  0  0  0  0  0  0  0  0  0  0
   -0.3191    2.2160   -0.0006 C   0  0  0  0  0  0  0  0  0  0  0  0
    3.7842   -1.0514    0.0001 C   0  0  0  0  0  0  0  0  0  0  0  0
   -3.4295   -1.7609    0.0008 C   0  0  0  0  0  0  0  0  0  0  0  0
    1.8863   -0.1704    1.2078 C   0  0  0  0  0  0  0  0  0  0  0  0
    1.8864   -0.1714   -1.2082 C   0  0  0  0  0  0  0  0  0  0  0  0
   -0.9980   -1.5062   -0.0012 C   0  0  0  0  0  0  0  0  0  0  0  0
   -2.5100    0.5042   -0.0003 C   0  0  0  0  0  0  0  0  0  0  0  0
    3.1517   -0.7574    1.2080 C   0  0  0  0  0  0  0  0  0  0  0  0
    3.1517   -0.7583   -1.2080 C   0  0  0  0  0  0  0  0  0  0  0  0
   -2.0556   -2.3293   -0.0003 C   0  0  0  0  0  0  0  0  0  0  0  0
   -3.5943   -0.2833    0.0009 C   0  0  0  0  0  0  0  0  0  0  0  0
   -0.4233    2.9059   -1.2085 C   0  0  0  0  0  0  0  0  0  0  0  0
   -0.4245    2.9053    1.2075 C   0  0  0  0  0  0  0  0  0  0  0  0
   -0.6327    4.2849   -1.2083 C   0  0  0  0  0  0  0  0  0  0  0  0
   -0.6341    4.2844    1.2076 C   0  0  0  0  0  0  0  0  0  0  0  0
    5.7301   -1.9515    1.2507 C   0  0  0  0  0  0  0  0  0  0  0  0
    5.7241   -1.9663   -1.2490 C   0  0  0  0  0  0  0  0  0  0  0  0
   -5.8375   -1.9875    0.0020 C   0  0  0  0  0  0  0  0  0  0  0  0
   -4.3150   -4.0117   -0.0002 C   0  0  0  0  0  0  0  0  0  0  0  0
   -0.7382    4.9741   -0.0004 C   0  0  0  0  0  0  0  0  0  0  0  0
    1.4057    0.0526    2.1573 H   0  0  0  0  0  0  0  0  0  0  0  0
    1.4057    0.0510   -2.1579 H   0  0  0  0  0  0  0  0  0  0  0  0
   -0.0221   -1.9770   -0.0020 H   0  0  0  0  0  0  0  0  0  0  0  0
   -2.6911    1.5725   -0.0006 H   0  0  0  0  0  0  0  0  0  0  0  0
    3.6014   -0.9661    2.1737 H   0  0  0  0  0  0  0  0  0  0  0  0
    3.6018   -0.9671   -2.1735 H   0  0  0  0  0  0  0  0  0  0  0  0
   -1.8812   -3.3982   -0.0004 H   0  0  0  0  0  0  0  0  0  0  0  0
   -4.5728    0.1808    0.0014 H   0  0  0  0  0  0  0  0  0  0  0  0
   -0.3433    2.3831   -2.1586 H   1  0  0  0  0  0  0  0  0  0  0  0
   -0.3455    2.3822    2.1574 H   1  0  0  0  0  0  0  0  0  0  0  0
   -0.7139    4.8221   -2.1488 H   1  0  0  0  0  0  0  0  0  0  0  0
   -0.7163    4.8211    2.1482 H   1  0  0  0  0  0  0  0  0  0  0  0
    6.7150   -2.4021    1.0846 H   0  0  0  0  0  0  0  0  0  0  0  0
    5.1529   -2.6730    1.8397 H   0  0  0  0  0  0  0  0  0  0  0  0
    5.8993   -1.0452    1.8427 H   0  0  0  0  0  0  0  0  0  0  0  0
    6.7056   -2.4241   -1.0821 H   0  0  0  0  0  0  0  0  0  0  0  0
    5.8991   -1.0657   -1.8479 H   0  0  0  0  0  0  0  0  0  0  0  0
    5.1394   -2.6872   -1.8312 H   0  0  0  0  0  0  0  0  0  0  0  0
   -6.5617   -2.8066    0.0029 H   0  0  0  0  0  0  0  0  0  0  0  0
   -5.9855   -1.3943    0.9090 H   0  0  0  0  0  0  0  0  0  0  0  0
   -5.9869   -1.3947   -0.9050 H   0  0  0  0  0  0  0  0  0  0  0  0
   -3.7865   -4.3197    0.9066 H   0  0  0  0  0  0  0  0  0  0  0  0
   -3.7867   -4.3184   -0.9075 H   0  0  0  0  0  0  0  0  0  0  0  0
   -5.3029   -4.4803   -0.0004 H   0  0  0  0  0  0  0  0  0  0  0  0
   -0.9014    6.0479   -0.0002 H   1  0  0  0  0  0  0  0  0  0  0  0
  1  7  1  0  0  0  0
  1 21  1  0  0  0  0
  1 22  1  0  0  0  0
  2  8  2  0  0  0  0
  2 23  1  0  0  0  0
  2 24  1  0  0  0  0
  3  4  1  0  0  0  0
  3  5  2  0  0  0  0
  3  6  1  0  0  0  0
  4  9  2  0  0  0  0
  4 10  1  0  0  0  0
  5 11  1  0  0  0  0
  5 12  1  0  0  0  0
  6 17  2  0  0  0  0
  6 18  1  0  0  0  0
  7 13  2  0  0  0  0
  7 14  1  0  0  0  0
  8 15  1  0  0  0  0
  8 16  1  0  0  0  0
  9 13  1  0  0  0  0
  9 26  1  0  0  0  0
 10 14  2  0  0  0  0
 10 27  1  0  0  0  0
 11 15  2  0  0  0  0
 11 28  1  0  0  0  0
 12 16  2  0  0  0  0
 12 29  1  0  0  0  0
 13 30  1  0  0  0  0
 14 31  1  0  0  0  0
 15 32  1  0  0  0  0
 16 33  1  0  0  0  0
 17 19  1  0  0  0  0
 17 34  1  0  0  0  0
 18 20  2  0  0  0  0
 18 35  1  0  0  0  0
 19 25  2  0  0  0  0
 19 36  1  0  0  0  0
 20 25  1  0  0  0  0
 20 37  1  0  0  0  0
 21 38  1  0  0  0  0
 21 39  1  0  0  0  0
 21 40  1  0  0  0  0
 22 41  1  0  0  0  0
 22 42  1  0  0  0  0
 22 43  1  0  0  0  0
 23 44  1  0  0  0  0
 23 45  1  0  0  0  0
 23 46  1  0  0  0  0
 24 47  1  0  0  0  0
 24 48  1  0  0  0  0
 24 49  1  0  0  0  0
 25 50  1  0  0  0  0
M  CHG  1   2   1
M  ISO  5  34   2  35   2  36   2  37   2  50   2
M  END
> <PUBCHEM_COMPOUND_CID>
16212170

> <PUBCHEM_CONFORMER_RMSD>
0.6

> <PUBCHEM_CONFORMER_DIVERSEORDER>
1
5
4
2
3

> <PUBCHEM_MMFF94_PARTIAL_CHARGES>
37
1 -0.84
10 -0.15
11 -0.15
12 -0.15
13 -0.15
14 -0.15
15 -0.14
16 -0.14
17 -0.15
18 -0.15
19 -0.15
2 -0.09
20 -0.15
21 0.37
22 0.37
23 0.35
24 0.35
25 -0.15
26 0.15
27 0.15
28 0.15
29 0.15
3 -0.06
30 0.15
31 0.15
32 0.15
33 0.15
34 0.15
35 0.15
36 0.15
37 0.15
4 0.03
50 0.15
6 0.03
7 0.1
8 0.37
9 -0.15

> <PUBCHEM_EFFECTIVE_ROTOR_COUNT>
3

> <PUBCHEM_PHARMACOPHORE_FEATURES>
4
1 1 cation
6 4 7 9 10 13 14 rings
6 5 8 11 12 15 16 rings
6 6 17 18 19 20 25 rings

> <PUBCHEM_HEAVY_ATOM_COUNT>
25

> <PUBCHEM_ATOM_DEF_STEREO_COUNT>
0

> <PUBCHEM_ATOM_UDEF_STEREO_COUNT>
0

> <PUBCHEM_BOND_DEF_STEREO_COUNT>
0

> <PUBCHEM_BOND_UDEF_STEREO_COUNT>
0

> <PUBCHEM_ISOTOPIC_ATOM_COUNT>
5

> <PUBCHEM_COMPONENT_COUNT>
1

> <PUBCHEM_CACTVS_TAUTO_COUNT>
1

> <PUBCHEM_CONFORMER_ID>
00F760CA00000001

> <PUBCHEM_MMFF94_ENERGY>
115.1997

> <PUBCHEM_FEATURE_SELFOVERLAP>
20.297

> <PUBCHEM_SHAPE_FINGERPRINT>
10169797 241 17174624178676747635
10411042 1 18410575123676941923
10721379 63 17978810217674218053
1100329 8 18411989035996819537
11045515 52 18334015012216756237
11056379 131 18267029353964893134
11069576 57 17193169649976600543
11578080 2 17461125963614251477
12107183 9 18341626940670941411
12160290 23 17908674294688038125
12342043 65 17631745868080014710
12516196 113 18339078297569772410
12788726 201 18188768336312820618
13004483 165 18411978083254720982
13140716 1 18412544310088919057
13583140 156 17841970240837164570
13590594 115 18336555984237419393
13681431 1 18193847160915451121
13690498 29 18272658909719167286
138480 1 15312379608287805477
13955234 65 17762909066550905707
14068700 675 18260264144866051630
14347424 109 17907315578613329331
14955137 171 17910958263991744272
15042514 8 18339364063403005795
15219462 58 17907255964039317002
15230672 131 17400937302074395822
16087824 20 18265615382692568213
17492 89 17979073009839252623
17539 30 18338509729756774325
1813 80 18341337789674854271
19315092 285 16591356131464461984
20600515 1 18201731634513206513
20775438 99 17400347349070824915
20832881 197 18334859463417923571
21049683 271 18046071720179438260
21120745 212 18338818752991552332
21304303 172 18272657814317662593
21304303 282 17760341332795185453
21796203 349 17903676133792925682
22849341 161 18267041581831613835
22956985 138 17977090585598383290
23366157 5 17903073683514983351
23558518 356 17973732372039579802
23559900 14 18194394722755392307
23845131 108 17476648581403105457
249057 25 17895205360128631910
255183 313 18052834545914601481
283562 15 18334575690280132314
3004659 81 18187086169854490926
3091708 16 9351981362342702865
3380486 145 17700097119377358204
345986 75 17968638441889152875
350125 39 17474397876652508073
4409770 3 18118111486277573277
463206 1 18262235633123205843
5104073 3 17979081806375224987
59755656 520 17694504741409222484
6086070 43 18263907952771789191
621550 5 18131914866689363880
6442390 28 17621614812763694457
6673363 416 18340220687122297844
70251023 43 18409173207865322082
7364860 26 17908990151152324777
7399639 24 18201424909998340666
77188 2 18339360871984277269
7970288 3 18409165545175310562
81228 2 18339091371302366097
9709674 26 17975975685509649523
9841814 1 18117265076871746443
9962374 69 18053097621705485847
9981440 41 17400642623687293640

> <PUBCHEM_SHAPE_MULTIPOLES>
504.53
10.2
5.99
1.21
6.43
8
0
-16.47
0.01
-5.44
0
1.2
0.49
0

> <PUBCHEM_SHAPE_SELFOVERLAP>
1087.167

> <PUBCHEM_SHAPE_VOLUME>
277.4

> <PUBCHEM_COORDINATE_TYPE>
2
5
10

$$$$
