10496641
  -OEChem-02172602273D

 42 44  0     1  0  0  0  0  0999 V2000
    0.3049   -0.8673   -1.0311 O   0  0  0  0  0  0  0  0  0  0  0  0
   -0.9534    3.2996   -0.4029 O   0  0  0  0  0  0  0  0  0  0  0  0
    2.4984   -2.6980   -1.2082 O   0  0  0  0  0  0  0  0  0  0  0  0
   -3.9445   -0.9033    2.0381 O   0  0  0  0  0  0  0  0  0  0  0  0
   -5.8637   -0.2433    0.1385 O   0  0  0  0  0  0  0  0  0  0  0  0
    5.4822    1.7556    1.4598 O   0  0  0  0  0  0  0  0  0  0  0  0
    0.3661    1.3453   -0.0172 C   0  0  1  0  0  0  0  0  0  0  0  0
   -0.3618    0.4267   -1.0277 C   0  0  2  0  0  0  0  0  0  0  0  0
    1.6953    0.6764   -0.0207 C   0  0  0  0  0  0  0  0  0  0  0  0
    1.5717   -0.5860   -0.5848 C   0  0  0  0  0  0  0  0  0  0  0  0
    0.3743    2.8052   -0.4455 C   0  0  0  0  0  0  0  0  0  0  0  0
   -1.8291    0.2472   -0.7129 C   0  0  0  0  0  0  0  0  0  0  0  0
    2.9097    1.1023    0.4895 C   0  0  0  0  0  0  0  0  0  0  0  0
    2.6352   -1.4648   -0.6607 C   0  0  0  0  0  0  0  0  0  0  0  0
    4.0034    0.2355    0.4109 C   0  0  0  0  0  0  0  0  0  0  0  0
   -2.2208   -0.2508    0.5302 C   0  0  0  0  0  0  0  0  0  0  0  0
   -2.7930    0.5786   -1.6657 C   0  0  0  0  0  0  0  0  0  0  0  0
    3.8664   -1.0404   -0.1594 C   0  0  0  0  0  0  0  0  0  0  0  0
   -3.5750   -0.4172    0.8201 C   0  0  0  0  0  0  0  0  0  0  0  0
   -4.1471    0.4122   -1.3758 C   0  0  0  0  0  0  0  0  0  0  0  0
   -4.5381   -0.0857   -0.1327 C   0  0  0  0  0  0  0  0  0  0  0  0
    5.2935    0.6540    0.9368 C   0  0  0  0  0  0  0  0  0  0  0  0
    2.1239   -3.7643   -0.3337 C   0  0  0  0  0  0  0  0  0  0  0  0
   -2.8985   -1.2176    2.9550 C   0  0  0  0  0  0  0  0  0  0  0  0
   -0.0531    1.2623    0.9925 H   0  0  0  0  0  0  0  0  0  0  0  0
   -0.2511    0.8205   -2.0489 H   0  0  0  0  0  0  0  0  0  0  0  0
    0.7604    2.9317   -1.4626 H   0  0  0  0  0  0  0  0  0  0  0  0
    0.9908    3.4180    0.2207 H   0  0  0  0  0  0  0  0  0  0  0  0
    2.9942    2.0830    0.9465 H   0  0  0  0  0  0  0  0  0  0  0  0
   -1.4335   -0.5129    1.2281 H   0  0  0  0  0  0  0  0  0  0  0  0
   -2.5039    0.9681   -2.6381 H   0  0  0  0  0  0  0  0  0  0  0  0
    4.7220   -1.7106   -0.2113 H   0  0  0  0  0  0  0  0  0  0  0  0
   -1.2708    3.2165    0.5125 H   0  0  0  0  0  0  0  0  0  0  0  0
   -4.8870    0.6747   -2.1272 H   0  0  0  0  0  0  0  0  0  0  0  0
    6.1221   -0.0692    0.8504 H   0  0  0  0  0  0  0  0  0  0  0  0
    2.0525   -4.6818   -0.9239 H   0  0  0  0  0  0  0  0  0  0  0  0
    1.1491   -3.5623    0.1214 H   0  0  0  0  0  0  0  0  0  0  0  0
    2.8813   -3.9043    0.4440 H   0  0  0  0  0  0  0  0  0  0  0  0
   -6.3811    0.0371   -0.6360 H   0  0  0  0  0  0  0  0  0  0  0  0
   -2.3225   -0.3279    3.2321 H   0  0  0  0  0  0  0  0  0  0  0  0
   -2.2629   -2.0274    2.5805 H   0  0  0  0  0  0  0  0  0  0  0  0
   -3.3731   -1.5853    3.8708 H   0  0  0  0  0  0  0  0  0  0  0  0
  1  8  1  0  0  0  0
  1 10  1  0  0  0  0
  2 11  1  0  0  0  0
  2 33  1  0  0  0  0
  3 14  1  0  0  0  0
  3 23  1  0  0  0  0
  4 19  1  0  0  0  0
  4 24  1  0  0  0  0
  5 21  1  0  0  0  0
  5 39  1  0  0  0  0
  6 22  2  0  0  0  0
  7  8  1  0  0  0  0
  7  9  1  0  0  0  0
  7 11  1  0  0  0  0
  7 25  1  0  0  0  0
  8 12  1  0  0  0  0
  8 26  1  0  0  0  0
  9 10  2  0  0  0  0
  9 13  1  0  0  0  0
 10 14  1  0  0  0  0
 11 27  1  0  0  0  0
 11 28  1  0  0  0  0
 12 16  2  0  0  0  0
 12 17  1  0  0  0  0
 13 15  2  0  0  0  0
 13 29  1  0  0  0  0
 14 18  2  0  0  0  0
 15 18  1  0  0  0  0
 15 22  1  0  0  0  0
 16 19  1  0  0  0  0
 16 30  1  0  0  0  0
 17 20  2  0  0  0  0
 17 31  1  0  0  0  0
 18 32  1  0  0  0  0
 19 21  2  0  0  0  0
 20 21  1  0  0  0  0
 20 34  1  0  0  0  0
 22 35  1  0  0  0  0
 23 36  1  0  0  0  0
 23 37  1  0  0  0  0
 23 38  1  0  0  0  0
 24 40  1  0  0  0  0
 24 41  1  0  0  0  0
 24 42  1  0  0  0  0
M  END
> <PUBCHEM_COMPOUND_CID>
10496641

> <PUBCHEM_CONFORMER_RMSD>
0.8

> <PUBCHEM_CONFORMER_DIVERSEORDER>
1
9
4
10
7
5
8
6
3
2

> <PUBCHEM_MMFF94_PARTIAL_CHARGES>
32
1 -0.36
10 0.08
11 0.28
12 -0.14
13 -0.15
14 0.08
15 0.09
16 -0.15
17 -0.15
18 -0.15
19 0.08
2 -0.68
20 -0.15
21 0.08
22 0.42
23 0.28
24 0.28
29 0.15
3 -0.36
30 0.15
31 0.15
32 0.15
33 0.4
34 0.15
35 0.06
39 0.45
4 -0.36
5 -0.53
6 -0.57
7 0.14
8 0.42
9 -0.14

> <PUBCHEM_EFFECTIVE_ROTOR_COUNT>
5.6

> <PUBCHEM_PHARMACOPHORE_FEATURES>
10
1 1 acceptor
1 2 acceptor
1 2 donor
1 3 acceptor
1 4 acceptor
1 5 donor
1 6 acceptor
5 1 7 8 9 10 rings
6 12 16 17 19 20 21 rings
6 9 10 13 14 15 18 rings

> <PUBCHEM_HEAVY_ATOM_COUNT>
24

> <PUBCHEM_ATOM_DEF_STEREO_COUNT>
2

> <PUBCHEM_ATOM_UDEF_STEREO_COUNT>
0

> <PUBCHEM_BOND_DEF_STEREO_COUNT>
0

> <PUBCHEM_BOND_UDEF_STEREO_COUNT>
0

> <PUBCHEM_ISOTOPIC_ATOM_COUNT>
0

> <PUBCHEM_COMPONENT_COUNT>
1

> <PUBCHEM_CACTVS_TAUTO_COUNT>
3

> <PUBCHEM_CONFORMER_ID>
00A02A8100000001

> <PUBCHEM_MMFF94_ENERGY>
90.1948

> <PUBCHEM_FEATURE_SELFOVERLAP>
50.852

> <PUBCHEM_SHAPE_FINGERPRINT>
10 15 18189040045504675272
10366900 7 18337116665973224406
10382601 240 18059862744566605070
10906281 52 18334586741030810412
11578080 2 16913651499273609577
11796584 16 16732978730383817810
12107183 9 17125939590715593747
12236239 1 17060337431391833589
12596602 18 17275385434490630979
12633257 1 18118143552418626251
12714826 92 17096107826172552249
12892183 10 18130803234658525609
13140716 1 18126275578951251148
13540713 4 18126557913311804996
13544653 18 18409451358205003669
13583140 156 16952501750730131276
13965767 371 16627191341205935681
14223421 5 18267863870352537276
14252887 29 18411141311940440630
14341114 328 16702303464117850258
14386348 63 18260551112757747983
14739800 52 15194984060754680394
14790565 3 18124873714811971252
15375358 24 18334008384907891798
15422964 175 18335151859773274405
15635459 17 18335143050843420739
16752209 62 15647601364060444727
18785283 64 18117280478229558428
19784866 170 18412539929675782340
20511986 3 17346593046084553473
20600515 1 17385725776981484253
20645477 70 18342171111972400534
21033650 10 16083064970684965516
221490 88 18125718985828957686
22182313 1 18269266881692197820
22224240 67 18201145663735058090
23175994 123 18334580140077351293
23557571 272 17895194342376909820
23558518 356 18046349621801471556
23559900 14 17823702966989777750
26918003 58 17894906338997329976
3380486 145 18336271236010260651
33824 294 18341326717544830758
474 4 17774998059327590960
5104073 3 18268700611597057960
602551 16 17022904566176453275
81228 2 18044664096098292765
9709674 26 18193553372435957246

> <PUBCHEM_SHAPE_MULTIPOLES>
458.69
10.56
2.77
1.7
0.93
0.69
1.08
0.32
3.41
-2.4
-0.44
1.55
0.61
2.48

> <PUBCHEM_SHAPE_SELFOVERLAP>
998.986

> <PUBCHEM_SHAPE_VOLUME>
251.3

> <PUBCHEM_COORDINATE_TYPE>
2
5
10

$$$$
