94156
  -OEChem-02172602583D

 30 32  0     1  0  0  0  0  0999 V2000
    0.3226   -0.6800   -0.2338 O   0  0  0  0  0  0  0  0  0  0  0  0
   -0.4707    0.5109   -0.3679 C   0  0  2  0  0  0  0  0  0  0  0  0
   -0.0422    1.5888    0.6312 C   0  0  0  0  0  0  0  0  0  0  0  0
    1.3984    1.9909    0.3412 C   0  0  0  0  0  0  0  0  0  0  0  0
    2.2519    0.7724    0.1369 C   0  0  0  0  0  0  0  0  0  0  0  0
   -1.9253    0.1356   -0.1770 C   0  0  0  0  0  0  0  0  0  0  0  0
    1.6755   -0.4730   -0.1456 C   0  0  0  0  0  0  0  0  0  0  0  0
    3.6475    0.8795    0.2005 C   0  0  0  0  0  0  0  0  0  0  0  0
    2.4827   -1.5997   -0.3214 C   0  0  0  0  0  0  0  0  0  0  0  0
   -2.2702   -0.8950    0.6968 C   0  0  0  0  0  0  0  0  0  0  0  0
   -2.9190    0.8207   -0.8754 C   0  0  0  0  0  0  0  0  0  0  0  0
    4.4522   -0.2447    0.0124 C   0  0  0  0  0  0  0  0  0  0  0  0
    3.8699   -1.4842   -0.2443 C   0  0  0  0  0  0  0  0  0  0  0  0
   -3.6101   -1.2410    0.8723 C   0  0  0  0  0  0  0  0  0  0  0  0
   -4.2589    0.4749   -0.6998 C   0  0  0  0  0  0  0  0  0  0  0  0
   -4.6044   -0.5560    0.1739 C   0  0  0  0  0  0  0  0  0  0  0  0
   -0.3404    0.8701   -1.3986 H   0  0  0  0  0  0  0  0  0  0  0  0
   -0.1056    1.1948    1.6548 H   0  0  0  0  0  0  0  0  0  0  0  0
   -0.6924    2.4698    0.5796 H   0  0  0  0  0  0  0  0  0  0  0  0
    1.7807    2.5931    1.1732 H   0  0  0  0  0  0  0  0  0  0  0  0
    1.4385    2.6036   -0.5676 H   0  0  0  0  0  0  0  0  0  0  0  0
    4.1152    1.8398    0.4027 H   0  0  0  0  0  0  0  0  0  0  0  0
    2.0371   -2.5699   -0.5252 H   0  0  0  0  0  0  0  0  0  0  0  0
   -1.5164   -1.4352    1.2629 H   0  0  0  0  0  0  0  0  0  0  0  0
   -2.6625    1.6268   -1.5575 H   0  0  0  0  0  0  0  0  0  0  0  0
    5.5331   -0.1537    0.0685 H   0  0  0  0  0  0  0  0  0  0  0  0
    4.4965   -2.3598   -0.3866 H   0  0  0  0  0  0  0  0  0  0  0  0
   -3.8797   -2.0414    1.5552 H   0  0  0  0  0  0  0  0  0  0  0  0
   -5.0333    1.0087   -1.2430 H   0  0  0  0  0  0  0  0  0  0  0  0
   -5.6478   -0.8247    0.3113 H   0  0  0  0  0  0  0  0  0  0  0  0
  1  2  1  0  0  0  0
  1  7  1  0  0  0  0
  2  3  1  0  0  0  0
  2  6  1  0  0  0  0
  2 17  1  0  0  0  0
  3  4  1  0  0  0  0
  3 18  1  0  0  0  0
  3 19  1  0  0  0  0
  4  5  1  0  0  0  0
  4 20  1  0  0  0  0
  4 21  1  0  0  0  0
  5  7  1  0  0  0  0
  5  8  2  0  0  0  0
  6 10  2  0  0  0  0
  6 11  1  0  0  0  0
  7  9  2  0  0  0  0
  8 12  1  0  0  0  0
  8 22  1  0  0  0  0
  9 13  1  0  0  0  0
  9 23  1  0  0  0  0
 10 14  1  0  0  0  0
 10 24  1  0  0  0  0
 11 15  2  0  0  0  0
 11 25  1  0  0  0  0
 12 13  2  0  0  0  0
 12 26  1  0  0  0  0
 13 27  1  0  0  0  0
 14 16  2  0  0  0  0
 14 28  1  0  0  0  0
 15 16  1  0  0  0  0
 15 29  1  0  0  0  0
 16 30  1  0  0  0  0
M  END
> <PUBCHEM_COMPOUND_CID>
94156

> <PUBCHEM_CONFORMER_RMSD>
0.6

> <PUBCHEM_CONFORMER_DIVERSEORDER>
2
3
4
1

> <PUBCHEM_MMFF94_PARTIAL_CHARGES>
24
1 -0.36
10 -0.15
11 -0.15
12 -0.15
13 -0.15
14 -0.15
15 -0.15
16 -0.15
2 0.42
22 0.15
23 0.15
24 0.15
25 0.15
26 0.15
27 0.15
28 0.15
29 0.15
30 0.15
4 0.14
5 -0.14
6 -0.14
7 0.08
8 -0.15
9 -0.15

> <PUBCHEM_EFFECTIVE_ROTOR_COUNT>
1.8

> <PUBCHEM_PHARMACOPHORE_FEATURES>
4
1 1 acceptor
6 1 2 3 4 5 7 rings
6 5 7 8 9 12 13 rings
6 6 10 11 14 15 16 rings

> <PUBCHEM_HEAVY_ATOM_COUNT>
16

> <PUBCHEM_ATOM_DEF_STEREO_COUNT>
0

> <PUBCHEM_ATOM_UDEF_STEREO_COUNT>
1

> <PUBCHEM_BOND_DEF_STEREO_COUNT>
0

> <PUBCHEM_BOND_UDEF_STEREO_COUNT>
0

> <PUBCHEM_ISOTOPIC_ATOM_COUNT>
0

> <PUBCHEM_COMPONENT_COUNT>
1

> <PUBCHEM_CACTVS_TAUTO_COUNT>
1

> <PUBCHEM_CONFORMER_ID>
00016FCC00000002

> <PUBCHEM_MMFF94_ENERGY>
46.2646

> <PUBCHEM_FEATURE_SELFOVERLAP>
20.327

> <PUBCHEM_SHAPE_FINGERPRINT>
10465860 250 18335978696891535096
10608611 8 18334851745029272597
11471102 20 18341891909344209564
11543360 7 16878237423590449486
11615757 297 17989490744450023291
11796584 16 17386279909530849994
12032990 46 18411985736933726718
12236239 1 16845573132326468741
124424 183 18409727361572616533
12616999 72 18260838120068983164
13134695 92 17988635311461248160
13296908 3 18408604755589230763
13675066 3 18412820313219239704
14115302 16 17968105225993898991
14252887 29 17846504703682597774
14386348 63 18407761438776602443
15196674 1 18410855451538227200
15219456 202 18408321116149488965
15309172 13 17846780710717664775
15375358 24 18408319990641347106
15375462 189 17988639713891825496
15653759 3 18186519925481175049
16945 1 18273212032328140872
17804303 29 18260270763357653631
17834074 16 18334013908383566411
18186145 218 17967810522760606957
19141452 34 18338521936792476459
200 152 17988920076904490719
20201158 50 18409730651159012115
20279233 1 18334579044380421819
20645477 70 18271803497444773982
21065201 7 17603297155165647705
21267235 1 18342465815949263046
21501925 9 18342454825022204200
22094290 60 17530964670404621045
221490 88 18263650726014497058
22485316 2 18409446994449769243
23175994 123 18341897381164459473
23402539 116 18410566279996063567
23557571 272 17676200264781562301
23559900 14 18261107427245211818
26918003 58 18409163299059206834
2871803 45 18336828598284894382
33824 294 18411417306813513034
4214541 1 18334857186784283741
474 4 16628532929927742656
4921388 177 16226341386276741307
5104073 3 18412261701177474512
69090 78 18411415146365874295
77492 1 16773798129840827245
77779 3 18334577949237465029
8809292 202 18260271879759331843
9709674 26 18188776183523999115

> <PUBCHEM_SHAPE_MULTIPOLES>
323.4
9.15
1.7
0.83
2.2
0.18
-0.01
-2.34
0.3
-0.85
-0.18
0.48
0.01
0.9

> <PUBCHEM_SHAPE_SELFOVERLAP>
707.937

> <PUBCHEM_SHAPE_VOLUME>
174.4

> <PUBCHEM_COORDINATE_TYPE>
2
5
10

$$$$
