101450243
  -OEChem-02172602313D

 75 77  0     1  0  0  0  0  0999 V2000
   -3.0210    0.7124    1.6335 O   0  0  0  0  0  0  0  0  0  0  0  0
   -1.8033   -0.5916    0.1298 O   0  0  0  0  0  0  0  0  0  0  0  0
    0.6749   -1.6944   -0.3148 O   0  0  0  0  0  0  0  0  0  0  0  0
   -2.7762   -3.2128   -2.2358 O   0  0  0  0  0  0  0  0  0  0  0  0
   -5.3778   -0.6624    0.8831 O   0  0  0  0  0  0  0  0  0  0  0  0
   -5.2146   -1.7047   -1.8678 O   0  0  0  0  0  0  0  0  0  0  0  0
    2.3809   -2.9990   -1.3130 O   0  0  0  0  0  0  0  0  0  0  0  0
    3.4291    2.0837   -2.0299 O   0  0  0  0  0  0  0  0  0  0  0  0
    4.1708   -0.7620   -0.6551 O   0  0  0  0  0  0  0  0  0  0  0  0
    2.2038   -2.1096    2.1106 O   0  0  0  0  0  0  0  0  0  0  0  0
    3.8691   -4.2939    1.7808 O   0  0  0  0  0  0  0  0  0  0  0  0
    0.1580    3.5747   -1.2867 C   0  0  0  0  0  0  0  0  0  0  0  0
    0.1574    3.2807    0.2492 C   0  0  1  0  0  0  0  0  0  0  0  0
   -0.6238    2.0162    0.6412 C   0  0  0  0  0  0  0  0  0  0  0  0
    1.0862    2.5843   -2.0162 C   0  0  0  0  0  0  0  0  0  0  0  0
    1.5719    3.1774    0.8006 C   0  0  0  0  0  0  0  0  0  0  0  0
   -1.0779    2.0876    2.0956 C   0  0  0  0  0  0  0  0  0  0  0  0
   -1.2566    3.4638   -1.8917 C   0  0  0  0  0  0  0  0  0  0  0  0
    0.6404    5.0254   -1.5430 C   0  0  0  0  0  0  0  0  0  0  0  0
   -1.8917    0.8513    2.4914 C   0  0  1  0  0  0  0  0  0  0  0  0
   -2.9860   -0.5251    0.9231 C   0  0  2  0  0  0  0  0  0  0  0  0
   -1.6947   -1.8209   -0.5900 C   0  0  1  0  0  0  0  0  0  0  0  0
   -4.2300   -0.5946    0.0374 C   0  0  1  0  0  0  0  0  0  0  0  0
   -2.8503   -1.9467   -1.5857 C   0  0  2  0  0  0  0  0  0  0  0  0
   -4.1968   -1.8226   -0.8726 C   0  0  2  0  0  0  0  0  0  0  0  0
    2.4580    2.4793   -1.3859 C   0  0  0  0  0  0  0  0  0  0  0  0
    2.6223    2.8139    0.0485 C   0  0  0  0  0  0  0  0  0  0  0  0
    1.7552    3.5299    2.2514 C   0  0  0  0  0  0  0  0  0  0  0  0
   -0.3409   -1.8243   -1.2928 C   0  0  0  0  0  0  0  0  0  0  0  0
   -2.3804    0.9417    3.9308 C   0  0  0  0  0  0  0  0  0  0  0  0
    1.9733   -1.6899   -0.9003 C   0  0  2  0  0  0  0  0  0  0  0  0
    2.9826   -1.0640    0.0739 C   0  0  1  0  0  0  0  0  0  0  0  0
    3.3251   -2.0050    1.2341 C   0  0  2  0  0  0  0  0  0  0  0  0
    3.6781   -3.3939    0.6981 C   0  0  2  0  0  0  0  0  0  0  0  0
    2.5851   -3.9048   -0.2317 C   0  0  0  0  0  0  0  0  0  0  0  0
   -0.3332    4.1463    0.7175 H   0  0  0  0  0  0  0  0  0  0  0  0
   -1.5196    1.9198    0.0279 H   0  0  0  0  0  0  0  0  0  0  0  0
   -0.0096    1.1232    0.4778 H   0  0  0  0  0  0  0  0  0  0  0  0
    1.2146    2.8896   -3.0618 H   0  0  0  0  0  0  0  0  0  0  0  0
    0.6574    1.5746   -2.0142 H   0  0  0  0  0  0  0  0  0  0  0  0
   -0.2452    2.1564    2.7919 H   0  0  0  0  0  0  0  0  0  0  0  0
   -1.6985    2.9829    2.2288 H   0  0  0  0  0  0  0  0  0  0  0  0
   -1.5975    2.4268   -1.9760 H   0  0  0  0  0  0  0  0  0  0  0  0
   -1.9871    4.0243   -1.2979 H   0  0  0  0  0  0  0  0  0  0  0  0
   -1.2785    3.8719   -2.9095 H   0  0  0  0  0  0  0  0  0  0  0  0
    1.6477    5.2103   -1.1577 H   0  0  0  0  0  0  0  0  0  0  0  0
    0.6590    5.2507   -2.6157 H   0  0  0  0  0  0  0  0  0  0  0  0
   -0.0313    5.7491   -1.0667 H   0  0  0  0  0  0  0  0  0  0  0  0
   -1.2305   -0.0248    2.4358 H   0  0  0  0  0  0  0  0  0  0  0  0
   -2.9921   -1.3412    1.6590 H   0  0  0  0  0  0  0  0  0  0  0  0
   -1.7037   -2.6490    0.1319 H   0  0  0  0  0  0  0  0  0  0  0  0
   -2.7720   -1.1753   -2.3615 H   0  0  0  0  0  0  0  0  0  0  0  0
   -4.3285    0.3216   -0.5569 H   0  0  0  0  0  0  0  0  0  0  0  0
   -4.4257   -2.7344   -0.3086 H   0  0  0  0  0  0  0  0  0  0  0  0
    3.6232    2.7463    0.4610 H   0  0  0  0  0  0  0  0  0  0  0  0
   -0.2810   -0.9729   -1.9818 H   0  0  0  0  0  0  0  0  0  0  0  0
   -0.2009   -2.7536   -1.8558 H   0  0  0  0  0  0  0  0  0  0  0  0
    2.7132    4.0417    2.4023 H   0  0  0  0  0  0  0  0  0  0  0  0
    1.7688    2.6324    2.8759 H   0  0  0  0  0  0  0  0  0  0  0  0
    0.9803    4.2157    2.6072 H   0  0  0  0  0  0  0  0  0  0  0  0
   -3.0554    1.7946    4.0617 H   0  0  0  0  0  0  0  0  0  0  0  0
   -2.9512    0.0454    4.1965 H   0  0  0  0  0  0  0  0  0  0  0  0
   -1.5458    1.0439    4.6311 H   0  0  0  0  0  0  0  0  0  0  0  0
    1.9600   -1.0715   -1.8072 H   0  0  0  0  0  0  0  0  0  0  0  0
    2.5694   -0.1280    0.4648 H   0  0  0  0  0  0  0  0  0  0  0  0
    4.1654   -1.6220    1.8246 H   0  0  0  0  0  0  0  0  0  0  0  0
    4.6222   -3.3265    0.1438 H   0  0  0  0  0  0  0  0  0  0  0  0
   -2.8300   -3.9041   -1.5541 H   0  0  0  0  0  0  0  0  0  0  0  0
   -5.3084   -1.4693    1.4214 H   0  0  0  0  0  0  0  0  0  0  0  0
   -5.0484   -0.8922   -2.3756 H   0  0  0  0  0  0  0  0  0  0  0  0
    2.8781   -4.8723   -0.6542 H   0  0  0  0  0  0  0  0  0  0  0  0
    1.6421   -4.0802    0.3002 H   0  0  0  0  0  0  0  0  0  0  0  0
    4.7885   -0.3305   -0.0405 H   0  0  0  0  0  0  0  0  0  0  0  0
    2.0028   -1.2157    2.4367 H   0  0  0  0  0  0  0  0  0  0  0  0
    4.0913   -5.1626    1.4045 H   0  0  0  0  0  0  0  0  0  0  0  0
  1 20  1  0  0  0  0
  1 21  1  0  0  0  0
  2 21  1  0  0  0  0
  2 22  1  0  0  0  0
  3 29  1  0  0  0  0
  3 31  1  0  0  0  0
  4 24  1  0  0  0  0
  4 68  1  0  0  0  0
  5 23  1  0  0  0  0
  5 69  1  0  0  0  0
  6 25  1  0  0  0  0
  6 70  1  0  0  0  0
  7 31  1  0  0  0  0
  7 35  1  0  0  0  0
  8 26  2  0  0  0  0
  9 32  1  0  0  0  0
  9 73  1  0  0  0  0
 10 33  1  0  0  0  0
 10 74  1  0  0  0  0
 11 34  1  0  0  0  0
 11 75  1  0  0  0  0
 12 13  1  0  0  0  0
 12 15  1  0  0  0  0
 12 18  1  0  0  0  0
 12 19  1  0  0  0  0
 13 14  1  0  0  0  0
 13 16  1  0  0  0  0
 13 36  1  0  0  0  0
 14 17  1  0  0  0  0
 14 37  1  0  0  0  0
 14 38  1  0  0  0  0
 15 26  1  0  0  0  0
 15 39  1  0  0  0  0
 15 40  1  0  0  0  0
 16 27  2  0  0  0  0
 16 28  1  0  0  0  0
 17 20  1  0  0  0  0
 17 41  1  0  0  0  0
 17 42  1  0  0  0  0
 18 43  1  0  0  0  0
 18 44  1  0  0  0  0
 18 45  1  0  0  0  0
 19 46  1  0  0  0  0
 19 47  1  0  0  0  0
 19 48  1  0  0  0  0
 20 30  1  0  0  0  0
 20 49  1  0  0  0  0
 21 23  1  0  0  0  0
 21 50  1  0  0  0  0
 22 24  1  0  0  0  0
 22 29  1  0  0  0  0
 22 51  1  0  0  0  0
 23 25  1  0  0  0  0
 23 53  1  0  0  0  0
 24 25  1  0  0  0  0
 24 52  1  0  0  0  0
 25 54  1  0  0  0  0
 26 27  1  0  0  0  0
 27 55  1  0  0  0  0
 28 58  1  0  0  0  0
 28 59  1  0  0  0  0
 28 60  1  0  0  0  0
 29 56  1  0  0  0  0
 29 57  1  0  0  0  0
 30 61  1  0  0  0  0
 30 62  1  0  0  0  0
 30 63  1  0  0  0  0
 31 32  1  0  0  0  0
 31 64  1  0  0  0  0
 32 33  1  0  0  0  0
 32 65  1  0  0  0  0
 33 34  1  0  0  0  0
 33 66  1  0  0  0  0
 34 35  1  0  0  0  0
 34 67  1  0  0  0  0
 35 71  1  0  0  0  0
 35 72  1  0  0  0  0
M  END
> <PUBCHEM_COMPOUND_CID>
101450243

> <PUBCHEM_CONFORMER_RMSD>
1.4

> <PUBCHEM_CONFORMER_DIVERSEORDER>
6
17
109
63
140
113
31
46
150
9
73
69
117
80
67
47
133
139
149
137
66
100
86
136
128
115
144
50
156
53
74
145
93
79
84
88
101
124
14
19
54
95
154
13
85
146
104
40
97
82
45
103
143
90
22
20
91
75
125
58
55
62
52
135
8
108
123
83
106
60
77
51
48
68
127
35
155
120
116
112
119
89
33
126
94
152
70
23
110
34
98
118
72
131
21
12
129
28
3
147
122
18
30
26
130
134
151
39
11
37
61
71
57
27
153
87
141
99
92
38
107
105
148
29
121
42
5
49
114
16
96
138
111
15
76
44
142
43
59
24
65
36
4
10
132
78
81
1
56
25
41
64
32
102
2
7

> <PUBCHEM_MMFF94_PARTIAL_CHARGES>
36
1 -0.56
10 -0.68
11 -0.68
13 0.14
15 0.06
16 -0.28
2 -0.56
20 0.28
21 0.56
22 0.28
23 0.28
24 0.28
25 0.28
26 0.49
27 -0.14
28 0.14
29 0.28
3 -0.56
31 0.56
32 0.28
33 0.28
34 0.28
35 0.28
4 -0.68
5 -0.68
55 0.15
6 -0.68
68 0.4
69 0.4
7 -0.56
70 0.4
73 0.4
74 0.4
75 0.4
8 -0.57
9 -0.68

> <PUBCHEM_EFFECTIVE_ROTOR_COUNT>
11

> <PUBCHEM_PHARMACOPHORE_FEATURES>
21
1 1 acceptor
1 10 acceptor
1 10 donor
1 11 acceptor
1 11 donor
1 2 acceptor
1 3 acceptor
1 4 acceptor
1 4 donor
1 5 acceptor
1 5 donor
1 6 acceptor
1 6 donor
1 7 acceptor
1 8 acceptor
1 9 acceptor
1 9 donor
3 12 18 19 hydrophobe
6 12 13 15 16 26 27 rings
6 2 21 22 23 24 25 rings
6 7 31 32 33 34 35 rings

> <PUBCHEM_HEAVY_ATOM_COUNT>
35

> <PUBCHEM_ATOM_DEF_STEREO_COUNT>
11

> <PUBCHEM_ATOM_UDEF_STEREO_COUNT>
0

> <PUBCHEM_BOND_DEF_STEREO_COUNT>
0

> <PUBCHEM_BOND_UDEF_STEREO_COUNT>
0

> <PUBCHEM_ISOTOPIC_ATOM_COUNT>
0

> <PUBCHEM_COMPONENT_COUNT>
1

> <PUBCHEM_CACTVS_TAUTO_COUNT>
8

> <PUBCHEM_CONFORMER_ID>
060C020300000006

> <PUBCHEM_MMFF94_ENERGY>
98.1989

> <PUBCHEM_FEATURE_SELFOVERLAP>
106.699

> <PUBCHEM_SHAPE_FINGERPRINT>
10675989 125 17697596950796500753
12156800 1 17179068048309378457
12160290 23 17544495058316051790
133893 2 18264226844754444521
13965767 371 17121442545208531507
14114207 22 18052504907116097496
14117953 113 17767978541067917901
14674994 50 17834107550749298072
15297060 5 16772138897927681339
15420108 30 17840341876157798384
17138139 8 17340129253089642901
19319366 153 17765708410139212911
20764821 26 17909000802338786660
20775530 9 18337677420918613740
21133410 90 17630579290205595561
3380486 145 18266186019635077920
4409770 3 17689422798332832231
445580 44 18120928404407201971
463206 1 18197787802094177441
469060 322 18335414656697045648
474144 1 18270682081636788375
4742675 86 16696912412800029530
57527452 28 17978206581416578600
66674814 147 17977100490004295400

> <PUBCHEM_SHAPE_MULTIPOLES>
655.72
7.68
6.91
2.89
6.53
1.18
-1.85
-6.73
0.42
-7.1
1.46
1.35
1.32
-3.18

> <PUBCHEM_SHAPE_SELFOVERLAP>
1347.762

> <PUBCHEM_SHAPE_VOLUME>
372.1

> <PUBCHEM_COORDINATE_TYPE>
2
5
10

$$$$
