5281896
  -OEChem-02172602523D

 73 75  0     1  0  0  0  0  0999 V2000
    3.1479    0.1972    0.0662 O   0  0  0  0  0  0  0  0  0  0  0  0
    4.8496   -0.9144    1.1651 O   0  0  0  0  0  0  0  0  0  0  0  0
    2.1498   -2.0228   -1.1586 O   0  0  0  0  0  0  0  0  0  0  0  0
   -1.6906   -3.2828   -2.1362 O   0  0  0  0  0  0  0  0  0  0  0  0
    0.1870    2.8279   -0.6364 O   0  0  0  0  0  0  0  0  0  0  0  0
   -6.2554    0.3619   -0.3819 O   0  0  0  0  0  0  0  0  0  0  0  0
   -4.6682   -1.9263    1.0845 O   0  0  0  0  0  0  0  0  0  0  0  0
    1.4320   -1.9352    1.0414 N   0  0  0  0  0  0  0  0  0  0  0  0
   -1.2211   -2.5807   -0.0434 N   0  0  0  0  0  0  0  0  0  0  0  0
   -0.2849    1.9713    1.4759 N   0  0  0  0  0  0  0  0  0  0  0  0
    4.0587    1.0943   -0.6190 C   0  0  1  0  0  0  0  0  0  0  0  0
    4.4813    0.4198   -1.9215 C   0  0  0  0  0  0  0  0  0  0  0  0
    3.2898    2.4183   -0.8394 C   0  0  2  0  0  0  0  0  0  0  0  0
    3.2625    0.1198   -2.7917 C   0  0  0  0  0  0  0  0  0  0  0  0
    5.2638   -0.8600   -1.6347 C   0  0  0  0  0  0  0  0  0  0  0  0
    4.0774    3.4365   -1.6663 C   0  0  0  0  0  0  0  0  0  0  0  0
    2.9575    3.0287    0.5078 C   0  0  0  0  0  0  0  0  0  0  0  0
    2.5652   -1.3921    1.6196 C   0  0  0  0  0  0  0  0  0  0  0  0
    0.5187   -2.3362    2.1348 C   0  0  0  0  0  0  0  0  0  0  0  0
    1.3087   -2.1464    3.4302 C   0  0  0  0  0  0  0  0  0  0  0  0
    3.6687   -0.7171    0.9235 C   0  0  0  0  0  0  0  0  0  0  0  0
    2.5521   -1.4729    2.9541 C   0  0  0  0  0  0  0  0  0  0  0  0
    1.7677    3.1045    1.1207 C   0  0  0  0  0  0  0  0  0  0  0  0
    1.2506   -2.1587   -0.3283 C   0  0  0  0  0  0  0  0  0  0  0  0
   -0.0644   -2.5859   -0.7864 C   0  0  0  0  0  0  0  0  0  0  0  0
    0.4901    2.6263    0.5338 C   0  0  0  0  0  0  0  0  0  0  0  0
   -2.1481   -2.9937   -0.8823 C   0  0  0  0  0  0  0  0  0  0  0  0
   -0.3602   -3.0136   -2.0643 C   0  0  0  0  0  0  0  0  0  0  0  0
   -3.5987   -3.1615   -0.6564 C   0  0  0  0  0  0  0  0  0  0  0  0
   -4.1143   -0.6310   -0.8857 C   0  0  0  0  0  0  0  0  0  0  0  0
   -4.8461    0.5492   -0.2378 C   0  0  1  0  0  0  0  0  0  0  0  0
   -4.1716   -1.9013   -0.0418 C   0  0  0  0  0  0  0  0  0  0  0  0
   -1.6116    1.4558    1.1869 C   0  0  0  0  0  0  0  0  0  0  0  0
   -4.4663    1.8464   -0.9054 C   0  0  0  0  0  0  0  0  0  0  0  0
   -3.9201    2.9349   -0.3293 C   0  0  0  0  0  0  0  0  0  0  0  0
   -2.6194    2.4133    1.7443 C   0  0  0  0  0  0  0  0  0  0  0  0
   -3.6001    3.0461    1.0815 C   0  0  0  0  0  0  0  0  0  0  0  0
   -3.6380    4.1806   -1.1233 C   0  0  0  0  0  0  0  0  0  0  0  0
    4.9383    1.2864    0.0110 H   0  0  0  0  0  0  0  0  0  0  0  0
    5.1597    1.0772   -2.4779 H   0  0  0  0  0  0  0  0  0  0  0  0
    2.3613    2.2061   -1.3756 H   0  0  0  0  0  0  0  0  0  0  0  0
    2.3303   -0.0099   -2.2414 H   0  0  0  0  0  0  0  0  0  0  0  0
    3.4217   -0.7578   -3.4272 H   0  0  0  0  0  0  0  0  0  0  0  0
    3.0858    0.9636   -3.4699 H   0  0  0  0  0  0  0  0  0  0  0  0
    4.6505   -1.6780   -1.2537 H   0  0  0  0  0  0  0  0  0  0  0  0
    5.7032   -1.2297   -2.5699 H   0  0  0  0  0  0  0  0  0  0  0  0
    6.1034   -0.6734   -0.9580 H   0  0  0  0  0  0  0  0  0  0  0  0
    5.0771    3.6035   -1.2498 H   0  0  0  0  0  0  0  0  0  0  0  0
    4.1926    3.1082   -2.7036 H   0  0  0  0  0  0  0  0  0  0  0  0
    3.5603    4.4028   -1.6944 H   0  0  0  0  0  0  0  0  0  0  0  0
    3.8127    3.4086    1.0669 H   0  0  0  0  0  0  0  0  0  0  0  0
    0.2004   -3.3749    1.9983 H   0  0  0  0  0  0  0  0  0  0  0  0
   -0.3581   -1.6797    2.1171 H   0  0  0  0  0  0  0  0  0  0  0  0
    1.5434   -3.1068    3.9001 H   0  0  0  0  0  0  0  0  0  0  0  0
    0.7586   -1.5280    4.1455 H   0  0  0  0  0  0  0  0  0  0  0  0
    3.3215   -1.1000    3.6151 H   0  0  0  0  0  0  0  0  0  0  0  0
    1.7148    3.5228    2.1223 H   0  0  0  0  0  0  0  0  0  0  0  0
    0.2075   -3.1641   -2.9707 H   0  0  0  0  0  0  0  0  0  0  0  0
   -3.7716   -4.0003    0.0260 H   0  0  0  0  0  0  0  0  0  0  0  0
   -4.1380   -3.3716   -1.5856 H   0  0  0  0  0  0  0  0  0  0  0  0
   -3.0572   -0.3832   -1.0303 H   0  0  0  0  0  0  0  0  0  0  0  0
   -4.5585   -0.8678   -1.8600 H   0  0  0  0  0  0  0  0  0  0  0  0
    0.0657    1.8563    2.4230 H   0  0  0  0  0  0  0  0  0  0  0  0
   -4.6463    0.5807    0.8365 H   0  0  0  0  0  0  0  0  0  0  0  0
   -1.7044    0.4866    1.6859 H   0  0  0  0  0  0  0  0  0  0  0  0
   -1.7129    1.3050    0.1095 H   0  0  0  0  0  0  0  0  0  0  0  0
   -4.6802    1.8893   -1.9732 H   0  0  0  0  0  0  0  0  0  0  0  0
   -2.5306    2.6249    2.8093 H   0  0  0  0  0  0  0  0  0  0  0  0
   -4.2148    3.7544    1.6341 H   0  0  0  0  0  0  0  0  0  0  0  0
   -3.9081    4.0672   -2.1789 H   0  0  0  0  0  0  0  0  0  0  0  0
   -2.5715    4.4284   -1.0827 H   0  0  0  0  0  0  0  0  0  0  0  0
   -4.2071    5.0291   -0.7278 H   0  0  0  0  0  0  0  0  0  0  0  0
   -6.4604    0.3093   -1.3312 H   0  0  0  0  0  0  0  0  0  0  0  0
  1 11  1  0  0  0  0
  1 21  1  0  0  0  0
  2 21  2  0  0  0  0
  3 24  2  0  0  0  0
  4 27  1  0  0  0  0
  4 28  1  0  0  0  0
  5 26  2  0  0  0  0
  6 31  1  0  0  0  0
  6 73  1  0  0  0  0
  7 32  2  0  0  0  0
  8 18  1  0  0  0  0
  8 19  1  0  0  0  0
  8 24  1  0  0  0  0
  9 25  1  0  0  0  0
  9 27  2  0  0  0  0
 10 26  1  0  0  0  0
 10 33  1  0  0  0  0
 10 63  1  0  0  0  0
 11 12  1  0  0  0  0
 11 13  1  0  0  0  0
 11 39  1  0  0  0  0
 12 14  1  0  0  0  0
 12 15  1  0  0  0  0
 12 40  1  0  0  0  0
 13 16  1  0  0  0  0
 13 17  1  0  0  0  0
 13 41  1  0  0  0  0
 14 42  1  0  0  0  0
 14 43  1  0  0  0  0
 14 44  1  0  0  0  0
 15 45  1  0  0  0  0
 15 46  1  0  0  0  0
 15 47  1  0  0  0  0
 16 48  1  0  0  0  0
 16 49  1  0  0  0  0
 16 50  1  0  0  0  0
 17 23  2  0  0  0  0
 17 51  1  0  0  0  0
 18 21  1  0  0  0  0
 18 22  2  0  0  0  0
 19 20  1  0  0  0  0
 19 52  1  0  0  0  0
 19 53  1  0  0  0  0
 20 22  1  0  0  0  0
 20 54  1  0  0  0  0
 20 55  1  0  0  0  0
 22 56  1  0  0  0  0
 23 26  1  0  0  0  0
 23 57  1  0  0  0  0
 24 25  1  0  0  0  0
 25 28  2  0  0  0  0
 27 29  1  0  0  0  0
 28 58  1  0  0  0  0
 29 32  1  0  0  0  0
 29 59  1  0  0  0  0
 29 60  1  0  0  0  0
 30 31  1  0  0  0  0
 30 32  1  0  0  0  0
 30 61  1  0  0  0  0
 30 62  1  0  0  0  0
 31 34  1  0  0  0  0
 31 64  1  0  0  0  0
 33 36  1  0  0  0  0
 33 65  1  0  0  0  0
 33 66  1  0  0  0  0
 34 35  2  0  0  0  0
 34 67  1  0  0  0  0
 35 37  1  0  0  0  0
 35 38  1  0  0  0  0
 36 37  2  0  0  0  0
 36 68  1  0  0  0  0
 37 69  1  0  0  0  0
 38 70  1  0  0  0  0
 38 71  1  0  0  0  0
 38 72  1  0  0  0  0
M  END
> <PUBCHEM_COMPOUND_CID>
5281896

> <PUBCHEM_CONFORMER_RMSD>
0.8

> <PUBCHEM_CONFORMER_DIVERSEORDER>
1

> <PUBCHEM_MMFF94_PARTIAL_CHARGES>
43
1 -0.43
10 -0.73
11 0.28
13 0.14
17 -0.29
18 0.12
19 0.3
2 -0.57
20 0.14
21 0.71
22 -0.29
23 -0.14
24 0.72
25 0.14
26 0.62
27 0.3
28 -0.01
29 0.24
3 -0.57
30 0.06
31 0.42
32 0.45
33 0.44
34 -0.29
35 -0.14
36 -0.29
37 -0.15
38 0.14
4 -0.28
5 -0.57
51 0.15
56 0.15
57 0.15
58 0.15
6 -0.68
63 0.37
67 0.15
68 0.15
69 0.15
7 -0.57
73 0.4
8 -0.47
9 -0.57

> <PUBCHEM_EFFECTIVE_ROTOR_COUNT>
3

> <PUBCHEM_PHARMACOPHORE_FEATURES>
10
1 10 donor
1 2 acceptor
1 3 acceptor
1 5 acceptor
1 6 acceptor
1 6 donor
1 7 acceptor
3 12 14 15 hydrophobe
5 4 9 25 27 28 rings
5 8 18 19 20 22 rings

> <PUBCHEM_HEAVY_ATOM_COUNT>
38

> <PUBCHEM_ATOM_DEF_STEREO_COUNT>
3

> <PUBCHEM_ATOM_UDEF_STEREO_COUNT>
0

> <PUBCHEM_BOND_DEF_STEREO_COUNT>
3

> <PUBCHEM_BOND_UDEF_STEREO_COUNT>
0

> <PUBCHEM_ISOTOPIC_ATOM_COUNT>
0

> <PUBCHEM_COMPONENT_COUNT>
1

> <PUBCHEM_CACTVS_TAUTO_COUNT>
10

> <PUBCHEM_CONFORMER_ID>
0050986800000001

> <PUBCHEM_MMFF94_ENERGY>
86.6034

> <PUBCHEM_FEATURE_SELFOVERLAP>
50.748

> <PUBCHEM_SHAPE_FINGERPRINT>
10670039 82 18343024380350893271
10675989 125 17760076711286195161
11093857 51 18059850615315347271
11170278 133 18409446990466519613
11513181 2 17845650331471383887
12156800 1 18200013136857221328
12788726 201 18198632227040191952
12978246 48 18340762663879499937
13636023 20 16554254421317686788
13726171 33 18340498785199600929
14117953 113 17690549793704385341
14251757 17 18057615454004136076
14295345 954 18411976932773438682
14840074 17 18268167503334547185
15001296 14 18339639053021583529
15297060 5 17773879696882533779
15968369 153 18058717152593126759
15975801 100 17968385541773052444
16067690 210 18264491861158195759
17977149 70 18340490078994955957
20764821 26 18127387129609507711
22393880 68 18409451370911122373
23559900 14 17552349978512992319
3052486 1 18342455903138343978
338550 245 18262789774198228104
463206 1 18338237037883104704
474144 1 18261379023522601697
508180 173 18339941393455404524
57527573 199 17542773661795480056
5895379 119 18272645753669563722

> <PUBCHEM_SHAPE_MULTIPOLES>
725.99
10.98
5.72
2.64
5.09
1.96
-1
3.65
3.58
3.08
0.72
-2.45
-1.47
-2

> <PUBCHEM_SHAPE_SELFOVERLAP>
1517.449

> <PUBCHEM_SHAPE_VOLUME>
408.1

> <PUBCHEM_COORDINATE_TYPE>
2
5
10

$$$$
