6432285
  -OEChem-02172602543D

 29 29  0     1  0  0  0  0  0999 V2000
   -3.9048   -0.7893    0.3366 O   0  0  0  0  0  0  0  0  0  0  0  0
   -0.3481    0.2802   -0.2032 C   0  0  2  0  0  0  0  0  0  0  0  0
    0.9026    0.2030    0.6969 C   0  0  2  0  0  0  0  0  0  0  0  0
   -0.4062    1.7840    0.1371 C   0  0  0  0  0  0  0  0  0  0  0  0
    1.1114    1.7035    0.4045 C   0  0  0  0  0  0  0  0  0  0  0  0
   -1.5171   -0.5159    0.3437 C   0  0  0  0  0  0  0  0  0  0  0  0
   -0.1750   -0.0053   -1.6768 C   0  0  0  0  0  0  0  0  0  0  0  0
    2.0156   -0.6740    0.2098 C   0  0  0  0  0  0  0  0  0  0  0  0
   -2.8421   -0.0017   -0.1841 C   0  0  0  0  0  0  0  0  0  0  0  0
    3.2475    0.0272   -0.2809 C   0  0  0  0  0  0  0  0  0  0  0  0
    1.9163   -2.0117    0.2164 C   0  0  0  0  0  0  0  0  0  0  0  0
    0.6916    0.0224    1.7607 H   0  0  0  0  0  0  0  0  0  0  0  0
   -0.9810    2.0373    1.0367 H   0  0  0  0  0  0  0  0  0  0  0  0
   -0.7058    2.4612   -0.6680 H   0  0  0  0  0  0  0  0  0  0  0  0
    1.6805    2.0019   -0.4817 H   0  0  0  0  0  0  0  0  0  0  0  0
    1.4612    2.3020    1.2515 H   0  0  0  0  0  0  0  0  0  0  0  0
   -1.4093   -1.5835    0.1127 H   0  0  0  0  0  0  0  0  0  0  0  0
   -1.5501   -0.4683    1.4406 H   0  0  0  0  0  0  0  0  0  0  0  0
   -0.0811   -1.0785   -1.8765 H   0  0  0  0  0  0  0  0  0  0  0  0
   -1.0185    0.3649   -2.2686 H   0  0  0  0  0  0  0  0  0  0  0  0
    0.7138    0.4807   -2.0942 H   0  0  0  0  0  0  0  0  0  0  0  0
   -3.0231    1.0344    0.1162 H   0  0  0  0  0  0  0  0  0  0  0  0
   -2.9069   -0.0477   -1.2743 H   0  0  0  0  0  0  0  0  0  0  0  0
    3.6091    0.7572    0.4506 H   0  0  0  0  0  0  0  0  0  0  0  0
    3.0714    0.5217   -1.2407 H   0  0  0  0  0  0  0  0  0  0  0  0
    4.0682   -0.6822   -0.4407 H   0  0  0  0  0  0  0  0  0  0  0  0
    2.7258   -2.6408   -0.1380 H   0  0  0  0  0  0  0  0  0  0  0  0
    1.0215   -2.5065    0.5789 H   0  0  0  0  0  0  0  0  0  0  0  0
   -3.7631   -1.7050    0.0418 H   0  0  0  0  0  0  0  0  0  0  0  0
  1  9  1  0  0  0  0
  1 29  1  0  0  0  0
  2  3  1  0  0  0  0
  2  4  1  0  0  0  0
  2  6  1  0  0  0  0
  2  7  1  0  0  0  0
  3  5  1  0  0  0  0
  3  8  1  0  0  0  0
  3 12  1  0  0  0  0
  4  5  1  0  0  0  0
  4 13  1  0  0  0  0
  4 14  1  0  0  0  0
  5 15  1  0  0  0  0
  5 16  1  0  0  0  0
  6  9  1  0  0  0  0
  6 17  1  0  0  0  0
  6 18  1  0  0  0  0
  7 19  1  0  0  0  0
  7 20  1  0  0  0  0
  7 21  1  0  0  0  0
  8 10  1  0  0  0  0
  8 11  2  0  0  0  0
  9 22  1  0  0  0  0
  9 23  1  0  0  0  0
 10 24  1  0  0  0  0
 10 25  1  0  0  0  0
 10 26  1  0  0  0  0
 11 27  1  0  0  0  0
 11 28  1  0  0  0  0
M  END
> <PUBCHEM_COMPOUND_CID>
6432285

> <PUBCHEM_CONFORMER_RMSD>
0.6

> <PUBCHEM_CONFORMER_DIVERSEORDER>
1
6
11
10
7
4
2
8
9
3
5

> <PUBCHEM_MMFF94_PARTIAL_CHARGES>
9
1 -0.68
10 0.14
11 -0.3
27 0.15
28 0.15
29 0.4
3 0.12
8 -0.25
9 0.28

> <PUBCHEM_EFFECTIVE_ROTOR_COUNT>
3.8

> <PUBCHEM_PHARMACOPHORE_FEATURES>
3
1 1 acceptor
1 1 donor
4 2 3 4 5 rings

> <PUBCHEM_HEAVY_ATOM_COUNT>
11

> <PUBCHEM_ATOM_DEF_STEREO_COUNT>
2

> <PUBCHEM_ATOM_UDEF_STEREO_COUNT>
0

> <PUBCHEM_BOND_DEF_STEREO_COUNT>
0

> <PUBCHEM_BOND_UDEF_STEREO_COUNT>
0

> <PUBCHEM_ISOTOPIC_ATOM_COUNT>
0

> <PUBCHEM_COMPONENT_COUNT>
1

> <PUBCHEM_CACTVS_TAUTO_COUNT>
1

> <PUBCHEM_CONFORMER_ID>
0062261D00000001

> <PUBCHEM_MMFF94_ENERGY>
28.491

> <PUBCHEM_FEATURE_SELFOVERLAP>
15.223

> <PUBCHEM_SHAPE_FINGERPRINT>
10219947 1 17704356571651636341
11769659 78 18115303367370103435
12423570 1 17561081401890767220
12932764 1 17846486037422283269
14252887 29 18060150837597438046
14993402 34 17703788141114340677
161256 15 18412256255306921280
16945 1 18341321258219027408
20201158 50 18260830397106128018
20645477 70 18341044207728908711
20871998 184 17771896135130510262
20871998 22 18200318714631552326
23402539 116 16153416260258138206
23552423 10 18045222635441645002
2748010 2 18054777404371718924
29004967 10 18411130329708954504
528862 383 18340196509569167952
68250623 7 18196380208177847992

> <PUBCHEM_SHAPE_MULTIPOLES>
220.51
4.51
1.67
0.97
2.6
0.18
0.4
-1.76
-0.32
-0.62
-0.27
0.02
0
0.07

> <PUBCHEM_SHAPE_SELFOVERLAP>
435.522

> <PUBCHEM_SHAPE_VOLUME>
134.6

> <PUBCHEM_COORDINATE_TYPE>
2
5
10

$$$$
