443414
  -OEChem-02172602503D

 50 55  0     1  0  0  0  0  0999 V2000
   -0.5343   -2.3673    0.1576 O   0  0  0  0  0  0  0  0  0  0  0  0
    3.1795    3.0193    0.3557 O   0  0  0  0  0  0  0  0  0  0  0  0
    1.3335   -3.3861   -0.7428 O   0  0  0  0  0  0  0  0  0  0  0  0
    1.2064    1.6893    0.8384 N   0  0  2  0  0  0  0  0  0  0  0  0
   -1.8317    2.2412   -0.4104 N   0  0  0  0  0  0  0  0  0  0  0  0
   -1.0584    0.0186    0.0683 C   0  0  1  0  0  0  0  0  0  0  0  0
    1.2417   -0.7439    0.2419 C   0  0  1  0  0  0  0  0  0  0  0  0
    0.8795    0.3201    1.3389 C   0  0  2  0  0  0  0  0  0  0  0  0
    0.6884    1.8383   -0.5664 C   0  0  2  0  0  0  0  0  0  0  0  0
   -0.7534    1.3120   -0.7498 C   0  0  2  0  0  0  0  0  0  0  0  0
   -0.1340   -1.1188   -0.4019 C   0  0  1  0  0  0  0  0  0  0  0  0
   -0.6199    0.2192    1.5215 C   0  0  0  0  0  0  0  0  0  0  0  0
    2.2675   -0.0972   -0.7381 C   0  0  1  0  0  0  0  0  0  0  0  0
    1.5984    1.0279   -1.5402 C   0  0  0  0  0  0  0  0  0  0  0  0
    2.7004    1.7817    0.8796 C   0  0  1  0  0  0  0  0  0  0  0  0
   -2.5486    0.0387   -0.0277 C   0  0  0  0  0  0  0  0  0  0  0  0
    3.3130    0.6285    0.0943 C   0  0  0  0  0  0  0  0  0  0  0  0
   -2.9434    1.3740   -0.2692 C   0  0  0  0  0  0  0  0  0  0  0  0
   -3.4840   -0.9604    0.1588 C   0  0  0  0  0  0  0  0  0  0  0  0
    4.6028    0.2757    0.1583 C   0  0  0  0  0  0  0  0  0  0  0  0
   -4.2787    1.7329   -0.2726 C   0  0  0  0  0  0  0  0  0  0  0  0
    0.2972   -3.4215   -0.0932 C   0  0  0  0  0  0  0  0  0  0  0  0
   -4.8355   -0.6085    0.1163 C   0  0  0  0  0  0  0  0  0  0  0  0
   -5.2289    0.7255   -0.0899 C   0  0  0  0  0  0  0  0  0  0  0  0
    5.1886   -0.8796   -0.5804 C   0  0  0  0  0  0  0  0  0  0  0  0
   -0.2462   -4.6598    0.5530 C   0  0  0  0  0  0  0  0  0  0  0  0
    1.7289   -1.5744    0.7652 H   0  0  0  0  0  0  0  0  0  0  0  0
    1.3814    0.1217    2.2940 H   0  0  0  0  0  0  0  0  0  0  0  0
    0.7158    2.8967   -0.8527 H   0  0  0  0  0  0  0  0  0  0  0  0
   -0.8989    1.0956   -1.8210 H   0  0  0  0  0  0  0  0  0  0  0  0
   -0.1065   -1.2203   -1.4925 H   0  0  0  0  0  0  0  0  0  0  0  0
   -0.8842   -0.6458    2.1434 H   0  0  0  0  0  0  0  0  0  0  0  0
   -1.0444    1.1049    2.0099 H   0  0  0  0  0  0  0  0  0  0  0  0
    2.6747   -0.8394   -1.4281 H   0  0  0  0  0  0  0  0  0  0  0  0
    2.3501    1.6806   -2.0025 H   0  0  0  0  0  0  0  0  0  0  0  0
    1.0377    0.6074   -2.3827 H   0  0  0  0  0  0  0  0  0  0  0  0
    3.0269    1.7391    1.9256 H   0  0  0  0  0  0  0  0  0  0  0  0
   -1.9489    3.1273   -0.8846 H   0  0  0  0  0  0  0  0  0  0  0  0
   -3.1917   -1.9852    0.3561 H   0  0  0  0  0  0  0  0  0  0  0  0
    5.2810    0.8563    0.7783 H   0  0  0  0  0  0  0  0  0  0  0  0
    3.0454    3.0368   -0.6046 H   0  0  0  0  0  0  0  0  0  0  0  0
   -4.5879    2.7611   -0.4257 H   0  0  0  0  0  0  0  0  0  0  0  0
   -5.5946   -1.3726    0.2627 H   0  0  0  0  0  0  0  0  0  0  0  0
   -6.2867    0.9751   -0.1024 H   0  0  0  0  0  0  0  0  0  0  0  0
    5.5905   -0.5521   -1.5437 H   0  0  0  0  0  0  0  0  0  0  0  0
    4.4845   -1.7001   -0.7386 H   0  0  0  0  0  0  0  0  0  0  0  0
    6.0173   -1.2949    0.0035 H   0  0  0  0  0  0  0  0  0  0  0  0
   -1.2335   -4.8881    0.1440 H   0  0  0  0  0  0  0  0  0  0  0  0
   -0.3006   -4.5186    1.6353 H   0  0  0  0  0  0  0  0  0  0  0  0
    0.4209   -5.5010    0.3438 H   0  0  0  0  0  0  0  0  0  0  0  0
  1 11  1  0  0  0  0
  1 22  1  0  0  0  0
  2 15  1  0  0  0  0
  2 41  1  0  0  0  0
  3 22  2  0  0  0  0
  4  8  1  0  0  0  0
  4  9  1  0  0  0  0
  4 15  1  0  0  0  0
  5 10  1  0  0  0  0
  5 18  1  0  0  0  0
  5 38  1  0  0  0  0
  6 10  1  0  0  0  0
  6 11  1  0  0  0  0
  6 12  1  0  0  0  0
  6 16  1  0  0  0  0
  7  8  1  0  0  0  0
  7 11  1  0  0  0  0
  7 13  1  0  0  0  0
  7 27  1  0  0  0  0
  8 12  1  0  0  0  0
  8 28  1  0  0  0  0
  9 10  1  0  0  0  0
  9 14  1  0  0  0  0
  9 29  1  0  0  0  0
 10 30  1  0  0  0  0
 11 31  1  0  0  0  0
 12 32  1  0  0  0  0
 12 33  1  0  0  0  0
 13 14  1  0  0  0  0
 13 17  1  0  0  0  0
 13 34  1  0  0  0  0
 14 35  1  0  0  0  0
 14 36  1  0  0  0  0
 15 17  1  0  0  0  0
 15 37  1  0  0  0  0
 16 18  1  0  0  0  0
 16 19  2  0  0  0  0
 17 20  2  3  0  0  0
 18 21  2  0  0  0  0
 19 23  1  0  0  0  0
 19 39  1  0  0  0  0
 20 25  1  0  0  0  0
 20 40  1  0  0  0  0
 21 24  1  0  0  0  0
 21 42  1  0  0  0  0
 22 26  1  0  0  0  0
 23 24  2  0  0  0  0
 23 43  1  0  0  0  0
 24 44  1  0  0  0  0
 25 45  1  0  0  0  0
 25 46  1  0  0  0  0
 25 47  1  0  0  0  0
 26 48  1  0  0  0  0
 26 49  1  0  0  0  0
 26 50  1  0  0  0  0
M  END
> <PUBCHEM_COMPOUND_CID>
443414

> <PUBCHEM_CONFORMER_RMSD>
0.6

> <PUBCHEM_CONFORMER_DIVERSEORDER>
1

> <PUBCHEM_MMFF94_PARTIAL_CHARGES>
30
1 -0.43
10 0.37
11 0.28
13 0.14
15 0.69
16 -0.14
17 -0.28
18 0.1
19 -0.15
2 -0.68
20 -0.29
21 -0.15
22 0.66
23 -0.15
24 -0.15
25 0.14
26 0.06
3 -0.57
38 0.4
39 0.15
4 -0.81
40 0.15
41 0.4
42 0.15
43 0.15
44 0.15
5 -0.87
6 0.14
8 0.27
9 0.27

> <PUBCHEM_EFFECTIVE_ROTOR_COUNT>
3

> <PUBCHEM_PHARMACOPHORE_FEATURES>
11
1 2 acceptor
1 2 donor
1 25 hydrophobe
1 3 acceptor
1 4 cation
1 5 cation
1 5 donor
10 4 6 7 8 9 10 11 12 13 14 rings
5 5 6 10 16 18 rings
6 16 18 19 21 23 24 rings
8 4 7 8 9 13 14 15 17 rings

> <PUBCHEM_HEAVY_ATOM_COUNT>
26

> <PUBCHEM_ATOM_DEF_STEREO_COUNT>
7

> <PUBCHEM_ATOM_UDEF_STEREO_COUNT>
1

> <PUBCHEM_BOND_DEF_STEREO_COUNT>
0

> <PUBCHEM_BOND_UDEF_STEREO_COUNT>
1

> <PUBCHEM_ISOTOPIC_ATOM_COUNT>
0

> <PUBCHEM_COMPONENT_COUNT>
1

> <PUBCHEM_CACTVS_TAUTO_COUNT>
1

> <PUBCHEM_CONFORMER_ID>
0006C41600000001

> <PUBCHEM_MMFF94_ENERGY>
115.7937

> <PUBCHEM_FEATURE_SELFOVERLAP>
58.02

> <PUBCHEM_SHAPE_FINGERPRINT>
10693767 8 17916015759612814718
10863032 1 18196091045035662621
10948715 1 18340764943974442512
10967382 1 18338234856360776287
11370993 70 18412260666169385591
11578080 2 16770411771513749754
11963148 33 18261106431214739731
12035758 1 18413102888277018104
12236239 1 17385443219525490172
12293681 25 17679615283789598939
12422481 6 17972294253927237162
12592029 89 18338515236031396314
12730499 353 18410580561600936923
12788726 201 17703522034206407336
12839892 36 18264189349273407490
13140716 1 18410291436881530467
138480 1 17906449926967914779
14223421 5 18264485079831901813
14787075 74 17916299627302351065
14790565 3 18409736170334970964
15196674 1 18410011082712163189
15209289 33 18341894090876255652
15927050 60 18411978087946230078
1601671 61 18334293119775537428
16728300 4 17317858306299666426
16945 1 18123462787288447881
18681886 176 18261390091474527061
19591789 44 18410571807629711162
20028762 73 18272644692734066567
20197701 30 18342731931600748630
20567600 347 18260267426005171379
20832881 197 17988926626566262488
20905425 154 18051697646195060743
21033648 29 18341321284026346248
21267235 1 18334021605518783841
21330990 113 18261956237162730724
21421861 104 17974573489976197947
22182313 1 17679017098504671253
22393880 68 18342168947825367247
23402539 116 18413100684357661613
23419403 2 16675047412769025008
23558518 356 17756419723185609856
23559900 14 18338510829379100061
335352 9 18411136926715573772
350125 39 18409451375200503093
5104073 3 18410011074143393449
5265222 85 18337965596840644812
59755656 215 18335983060973855999
6138700 20 18268151959859108198
633830 44 18201995538820926957
6442390 28 18339078293453665971
6443956 14 18194967335794145558
7164475 11 17687748650256717158
7364860 26 18195524801169353311
81228 2 17619887887938859795

> <PUBCHEM_SHAPE_MULTIPOLES>
507.5
8.21
3.74
1.04
2.76
5.05
0.09
-2.71
-0.58
-0.81
0.11
-0.4
-0.19
0.71

> <PUBCHEM_SHAPE_SELFOVERLAP>
1151.188

> <PUBCHEM_SHAPE_VOLUME>
264.5

> <PUBCHEM_COORDINATE_TYPE>
2
5
10

$$$$
