3082427
  -OEChem-02172602303D

 79 83  0     1  0  0  0  0  0999 V2000
   -6.3772    0.4170    1.9552 O   0  0  0  0  0  0  0  0  0  0  0  0
    8.3328   -0.0913    1.4465 O   0  0  0  0  0  0  0  0  0  0  0  0
   -0.0701    0.4696   -0.9005 C   0  0  1  0  0  0  0  0  0  0  0  0
    0.6325   -0.8566   -0.5481 C   0  0  2  0  0  0  0  0  0  0  0  0
    2.1540   -0.7999   -0.7184 C   0  0  1  0  0  0  0  0  0  0  0  0
    2.7347    0.3361    0.1733 C   0  0  1  0  0  0  0  0  0  0  0  0
   -1.5404    0.0370   -0.6813 C   0  0  2  0  0  0  0  0  0  0  0  0
    0.4394    1.5359    0.0792 C   0  0  0  0  0  0  0  0  0  0  0  0
   -0.1561   -1.9036   -1.3288 C   0  0  0  0  0  0  0  0  0  0  0  0
    4.3019    0.4611    0.0034 C   0  0  2  0  0  0  0  0  0  0  0  0
    1.9697    1.6786    0.0101 C   0  0  0  0  0  0  0  0  0  0  0  0
   -1.6031   -1.3767   -1.3060 C   0  0  0  0  0  0  0  0  0  0  0  0
   -2.6130    0.9715   -1.2221 C   0  0  1  0  0  0  0  0  0  0  0  0
    2.7938   -2.1452   -0.3441 C   0  0  0  0  0  0  0  0  0  0  0  0
    0.1627    0.9383   -2.3584 C   0  0  0  0  0  0  0  0  0  0  0  0
    4.9645   -0.9236    0.0144 C   0  0  0  0  0  0  0  0  0  0  0  0
    4.8561    1.3009    1.1930 C   0  0  0  0  0  0  0  0  0  0  0  0
    4.2710   -2.0665   -0.1278 C   0  0  0  0  0  0  0  0  0  0  0  0
   -4.0424    0.4584   -0.9535 C   0  0  0  0  0  0  0  0  0  0  0  0
    4.6698    1.1563   -1.3296 C   0  0  0  0  0  0  0  0  0  0  0  0
    6.4633   -0.9700    0.2028 C   0  0  0  0  0  0  0  0  0  0  0  0
    6.3788    1.2838    1.3205 C   0  0  0  0  0  0  0  0  0  0  0  0
   -2.4506    2.3670   -0.6082 C   0  0  0  0  0  0  0  0  0  0  0  0
    6.9103   -0.1425    1.4048 C   0  0  2  0  0  0  0  0  0  0  0  0
   -4.3801    0.3492    0.5357 C   0  0  0  0  0  0  0  0  0  0  0  0
   -5.7986   -0.0841    0.7509 C   0  0  2  0  0  0  0  0  0  0  0  0
   -6.9226    0.8981    0.7199 C   0  0  2  0  0  0  0  0  0  0  0  0
   -6.0317   -1.5196    0.5022 C   0  0  0  0  0  0  0  0  0  0  0  0
   -6.7269    2.3459    0.4730 C   0  0  0  0  0  0  0  0  0  0  0  0
   -5.9204   -2.3511    1.7924 C   0  0  0  0  0  0  0  0  0  0  0  0
   -7.4021   -1.7741   -0.1505 C   0  0  0  0  0  0  0  0  0  0  0  0
    0.4463   -1.0705    0.5182 H   0  0  0  0  0  0  0  0  0  0  0  0
    2.3942   -0.6006   -1.7688 H   0  0  0  0  0  0  0  0  0  0  0  0
    2.5505    0.0229    1.2141 H   0  0  0  0  0  0  0  0  0  0  0  0
   -1.6830   -0.0805    0.4020 H   0  0  0  0  0  0  0  0  0  0  0  0
    0.1566    1.2759    1.1072 H   0  0  0  0  0  0  0  0  0  0  0  0
    0.0297    2.5267   -0.1183 H   0  0  0  0  0  0  0  0  0  0  0  0
   -0.0867   -2.8952   -0.8701 H   0  0  0  0  0  0  0  0  0  0  0  0
    0.2029   -1.9897   -2.3605 H   0  0  0  0  0  0  0  0  0  0  0  0
    2.2800    2.3772    0.7954 H   0  0  0  0  0  0  0  0  0  0  0  0
    2.2270    2.1539   -0.9410 H   0  0  0  0  0  0  0  0  0  0  0  0
   -2.2465   -2.0327   -0.7090 H   0  0  0  0  0  0  0  0  0  0  0  0
   -2.0037   -1.3630   -2.3261 H   0  0  0  0  0  0  0  0  0  0  0  0
   -2.5208    1.0662   -2.3112 H   0  0  0  0  0  0  0  0  0  0  0  0
    2.3411   -2.5476    0.5708 H   0  0  0  0  0  0  0  0  0  0  0  0
    2.5934   -2.8708   -1.1418 H   0  0  0  0  0  0  0  0  0  0  0  0
   -0.2624    0.2456   -3.0917 H   0  0  0  0  0  0  0  0  0  0  0  0
   -0.2862    1.9189   -2.5431 H   0  0  0  0  0  0  0  0  0  0  0  0
    1.2237    1.0370   -2.6030 H   0  0  0  0  0  0  0  0  0  0  0  0
    4.4361    0.9240    2.1355 H   0  0  0  0  0  0  0  0  0  0  0  0
    4.5320    2.3449    1.1070 H   0  0  0  0  0  0  0  0  0  0  0  0
    4.7939   -3.0192   -0.0903 H   0  0  0  0  0  0  0  0  0  0  0  0
   -4.7556    1.1374   -1.4382 H   0  0  0  0  0  0  0  0  0  0  0  0
   -4.1821   -0.5063   -1.4532 H   0  0  0  0  0  0  0  0  0  0  0  0
    5.7496    1.1617   -1.5125 H   0  0  0  0  0  0  0  0  0  0  0  0
    4.3562    2.2052   -1.3390 H   0  0  0  0  0  0  0  0  0  0  0  0
    4.2074    0.6593   -2.1885 H   0  0  0  0  0  0  0  0  0  0  0  0
    6.8223   -1.9996    0.3295 H   0  0  0  0  0  0  0  0  0  0  0  0
    6.9611   -0.6086   -0.7058 H   0  0  0  0  0  0  0  0  0  0  0  0
    6.6820    1.8414    2.2154 H   0  0  0  0  0  0  0  0  0  0  0  0
    6.8431    1.8126    0.4789 H   0  0  0  0  0  0  0  0  0  0  0  0
   -3.3746    2.9471   -0.7233 H   0  0  0  0  0  0  0  0  0  0  0  0
   -2.2194    2.3378    0.4609 H   0  0  0  0  0  0  0  0  0  0  0  0
   -1.6899    2.9488   -1.1329 H   0  0  0  0  0  0  0  0  0  0  0  0
    6.5649   -0.6089    2.3356 H   0  0  0  0  0  0  0  0  0  0  0  0
   -3.7214   -0.3792    1.0216 H   0  0  0  0  0  0  0  0  0  0  0  0
   -4.1927    1.2978    1.0479 H   0  0  0  0  0  0  0  0  0  0  0  0
   -7.9340    0.6050    0.4814 H   0  0  0  0  0  0  0  0  0  0  0  0
   -5.2822   -1.9156   -0.1931 H   0  0  0  0  0  0  0  0  0  0  0  0
    8.6571   -1.0062    1.5043 H   0  0  0  0  0  0  0  0  0  0  0  0
   -7.5953    2.9057    0.8360 H   0  0  0  0  0  0  0  0  0  0  0  0
   -6.6323    2.5389   -0.5998 H   0  0  0  0  0  0  0  0  0  0  0  0
   -5.8467    2.7555    0.9767 H   0  0  0  0  0  0  0  0  0  0  0  0
   -4.9519   -2.1914    2.2782 H   0  0  0  0  0  0  0  0  0  0  0  0
   -6.0129   -3.4196    1.5698 H   0  0  0  0  0  0  0  0  0  0  0  0
   -6.7043   -2.0914    2.5122 H   0  0  0  0  0  0  0  0  0  0  0  0
   -8.2318   -1.5619    0.5323 H   0  0  0  0  0  0  0  0  0  0  0  0
   -7.4885   -2.8285   -0.4376 H   0  0  0  0  0  0  0  0  0  0  0  0
   -7.5272   -1.1781   -1.0609 H   0  0  0  0  0  0  0  0  0  0  0  0
  1 26  1  0  0  0  0
  1 27  1  0  0  0  0
  2 24  1  0  0  0  0
  2 70  1  0  0  0  0
  3  4  1  0  0  0  0
  3  7  1  0  0  0  0
  3  8  1  0  0  0  0
  3 15  1  0  0  0  0
  4  5  1  0  0  0  0
  4  9  1  0  0  0  0
  4 32  1  0  0  0  0
  5  6  1  0  0  0  0
  5 14  1  0  0  0  0
  5 33  1  0  0  0  0
  6 10  1  0  0  0  0
  6 11  1  0  0  0  0
  6 34  1  0  0  0  0
  7 12  1  0  0  0  0
  7 13  1  0  0  0  0
  7 35  1  0  0  0  0
  8 11  1  0  0  0  0
  8 36  1  0  0  0  0
  8 37  1  0  0  0  0
  9 12  1  0  0  0  0
  9 38  1  0  0  0  0
  9 39  1  0  0  0  0
 10 16  1  0  0  0  0
 10 17  1  0  0  0  0
 10 20  1  0  0  0  0
 11 40  1  0  0  0  0
 11 41  1  0  0  0  0
 12 42  1  0  0  0  0
 12 43  1  0  0  0  0
 13 19  1  0  0  0  0
 13 23  1  0  0  0  0
 13 44  1  0  0  0  0
 14 18  1  0  0  0  0
 14 45  1  0  0  0  0
 14 46  1  0  0  0  0
 15 47  1  0  0  0  0
 15 48  1  0  0  0  0
 15 49  1  0  0  0  0
 16 18  2  0  0  0  0
 16 21  1  0  0  0  0
 17 22  1  0  0  0  0
 17 50  1  0  0  0  0
 17 51  1  0  0  0  0
 18 52  1  0  0  0  0
 19 25  1  0  0  0  0
 19 53  1  0  0  0  0
 19 54  1  0  0  0  0
 20 55  1  0  0  0  0
 20 56  1  0  0  0  0
 20 57  1  0  0  0  0
 21 24  1  0  0  0  0
 21 58  1  0  0  0  0
 21 59  1  0  0  0  0
 22 24  1  0  0  0  0
 22 60  1  0  0  0  0
 22 61  1  0  0  0  0
 23 62  1  0  0  0  0
 23 63  1  0  0  0  0
 23 64  1  0  0  0  0
 24 65  1  0  0  0  0
 25 26  1  0  0  0  0
 25 66  1  0  0  0  0
 25 67  1  0  0  0  0
 26 27  1  0  0  0  0
 26 28  1  0  0  0  0
 27 29  1  0  0  0  0
 27 68  1  0  0  0  0
 28 30  1  0  0  0  0
 28 31  1  0  0  0  0
 28 69  1  0  0  0  0
 29 71  1  0  0  0  0
 29 72  1  0  0  0  0
 29 73  1  0  0  0  0
 30 74  1  0  0  0  0
 30 75  1  0  0  0  0
 30 76  1  0  0  0  0
 31 77  1  0  0  0  0
 31 78  1  0  0  0  0
 31 79  1  0  0  0  0
M  END
> <PUBCHEM_COMPOUND_CID>
3082427

> <PUBCHEM_CONFORMER_RMSD>
1

> <PUBCHEM_CONFORMER_DIVERSEORDER>
2
10
1
8
4
9
3
5
6
7

> <PUBCHEM_MMFF94_PARTIAL_CHARGES>
16
1 -0.3
10 0.14
14 0.14
16 -0.28
18 -0.29
2 -0.68
21 0.14
24 0.28
25 0.09
26 -0.04
27 -0.05
28 0.09
29 0.09
52 0.15
68 0.1
70 0.4

> <PUBCHEM_EFFECTIVE_ROTOR_COUNT>
7.6

> <PUBCHEM_PHARMACOPHORE_FEATURES>
9
1 1 acceptor
1 2 acceptor
1 2 donor
1 23 hydrophobe
3 28 30 31 hydrophobe
5 3 4 7 9 12 rings
6 10 16 17 21 22 24 rings
6 3 4 5 6 8 11 rings
6 5 6 10 14 16 18 rings

> <PUBCHEM_HEAVY_ATOM_COUNT>
31

> <PUBCHEM_ATOM_DEF_STEREO_COUNT>
9

> <PUBCHEM_ATOM_UDEF_STEREO_COUNT>
1

> <PUBCHEM_BOND_DEF_STEREO_COUNT>
0

> <PUBCHEM_BOND_UDEF_STEREO_COUNT>
0

> <PUBCHEM_ISOTOPIC_ATOM_COUNT>
0

> <PUBCHEM_COMPONENT_COUNT>
1

> <PUBCHEM_CACTVS_TAUTO_COUNT>
1

> <PUBCHEM_CONFORMER_ID>
002F08BB00000002

> <PUBCHEM_MMFF94_ENERGY>
95.6136

> <PUBCHEM_FEATURE_SELFOVERLAP>
45.766

> <PUBCHEM_SHAPE_FINGERPRINT>
10 15 18412259571269359880
10100884 174 18121492725210480259
10670039 82 12175626157697327331
10693767 8 11386351644146075912
10763959 59 10807928284729345706
11456790 92 17917702488687058226
11578080 2 17058632192173992242
11646440 116 18060136553116382744
11963148 33 17458334243826127466
12166972 35 14345799340152810678
12236239 1 17060331925127728604
12422481 6 18411987953453674927
12596602 18 18273217486994746531
13668630 136 12468359041868517728
13782708 43 16660639661226753898
13811026 1 18409165520137534507
14068700 675 17022906774449234453
14251764 18 18131066060612956214
14849402 71 17845649390467623680
15183329 4 16950280728404124315
15352257 5 18187366523680966635
15461852 350 16056587765122610285
18608769 82 18408041836233648782
20105231 36 18412262810556182238
21130935 74 18343022168596073403
21267235 1 18340208497492895342
21424621 283 13830141589376323135
21623969 137 18413109454765425214
21637258 2 16370721543295254566
21756936 100 17060614508569953141
21781051 124 18335996324260770502
22122407 14 17275109465429574489
22149856 69 18341626888218437769
22224240 67 18272650139042228095
22956985 138 15287584792575081634
23522609 53 17605868908853840797
23559900 14 14635448155219288213
23576562 1 10087334735089018155
2838139 119 14117516537113113627
3004659 81 8646767789920930902
312425 54 18334299730373472859
3178227 256 18413668016005925904
3633792 109 12751252402271424548
3663271 9 18202004309318140835
392239 28 18201169814721376561
397830 11 18343303669489676967
4093350 32 16487257656454761966
4340502 62 18409448077214148454
4353968 344 11458964466070206002
4403749 210 18273490183411705799
5104073 3 18266455404283748272
59682541 35 18410290354560211288
6086070 43 16844988162450851961
9953998 17 18408886218472337105

> <PUBCHEM_SHAPE_MULTIPOLES>
626.23
21.86
2.36
1.61
5.75
0.3
-0.04
1.75
13.21
1.9
0.03
0.13
-0.05
0.92

> <PUBCHEM_SHAPE_SELFOVERLAP>
1314.193

> <PUBCHEM_SHAPE_VOLUME>
354.1

> <PUBCHEM_COORDINATE_TYPE>
2
5
10

$$$$
