159888
  -OEChem-02172602293D

 43 48  0     1  0  0  0  0  0999 V2000
    0.7392    0.4237   -2.0760 O   0  0  0  0  0  0  0  0  0  0  0  0
    3.4484   -0.9532   -1.7341 O   0  0  0  0  0  0  0  0  0  0  0  0
   -2.9006   -2.9797    0.2047 O   0  0  0  0  0  0  0  0  0  0  0  0
   -4.9891   -1.8026   -0.0301 O   0  0  0  0  0  0  0  0  0  0  0  0
    5.0870   -1.5851   -0.0823 O   0  0  0  0  0  0  0  0  0  0  0  0
   -0.3536    2.6191   -0.4325 N   0  0  1  0  0  0  0  0  0  0  0  0
   -0.1947    1.2279    0.0667 C   0  0  1  0  0  0  0  0  0  0  0  0
    0.4503    1.0980    1.4923 C   0  0  0  0  0  0  0  0  0  0  0  0
   -1.5153    0.4374    0.0205 C   0  0  0  0  0  0  0  0  0  0  0  0
    0.8276    0.5569   -0.8675 C   0  0  0  0  0  0  0  0  0  0  0  0
   -1.4926    3.2872    0.2053 C   0  0  0  0  0  0  0  0  0  0  0  0
    1.7442    0.3782    1.2541 C   0  0  0  0  0  0  0  0  0  0  0  0
   -2.7538    1.1218   -0.0945 C   0  0  0  0  0  0  0  0  0  0  0  0
    1.9567    0.0743   -0.0864 C   0  0  0  0  0  0  0  0  0  0  0  0
   -2.7899    2.6193   -0.2392 C   0  0  0  0  0  0  0  0  0  0  0  0
   -1.5196   -0.9684    0.1364 C   0  0  0  0  0  0  0  0  0  0  0  0
    0.8385    3.4655   -0.3492 C   0  0  0  0  0  0  0  0  0  0  0  0
    3.0897   -0.5825   -0.4814 C   0  0  0  0  0  0  0  0  0  0  0  0
   -3.9656    0.4099   -0.1284 C   0  0  0  0  0  0  0  0  0  0  0  0
    2.6889    0.0154    2.2159 C   0  0  0  0  0  0  0  0  0  0  0  0
   -2.7289   -1.6329    0.1094 C   0  0  0  0  0  0  0  0  0  0  0  0
   -3.9187   -0.9627   -0.0220 C   0  0  0  0  0  0  0  0  0  0  0  0
    4.0199   -0.9400    0.4666 C   0  0  0  0  0  0  0  0  0  0  0  0
    3.8508   -0.6574    1.8157 C   0  0  0  0  0  0  0  0  0  0  0  0
    4.7174   -1.5895   -1.4773 C   0  0  0  0  0  0  0  0  0  0  0  0
   -4.3363   -3.0805    0.1135 C   0  0  0  0  0  0  0  0  0  0  0  0
   -0.1776    0.5253    2.1849 H   0  0  0  0  0  0  0  0  0  0  0  0
    0.6470    2.0649    1.9644 H   0  0  0  0  0  0  0  0  0  0  0  0
   -1.5442    4.3421   -0.0928 H   0  0  0  0  0  0  0  0  0  0  0  0
   -1.4018    3.2691    1.2990 H   0  0  0  0  0  0  0  0  0  0  0  0
   -2.9844    2.8560   -1.2932 H   0  0  0  0  0  0  0  0  0  0  0  0
   -3.6170    3.0307    0.3521 H   0  0  0  0  0  0  0  0  0  0  0  0
   -0.5991   -1.5315    0.2489 H   0  0  0  0  0  0  0  0  0  0  0  0
    0.6617    4.4078   -0.8815 H   0  0  0  0  0  0  0  0  0  0  0  0
    1.7021    3.0077   -0.8412 H   0  0  0  0  0  0  0  0  0  0  0  0
    1.1167    3.7185    0.6784 H   0  0  0  0  0  0  0  0  0  0  0  0
   -4.9144    0.9258   -0.2347 H   0  0  0  0  0  0  0  0  0  0  0  0
    2.5292    0.2499    3.2638 H   0  0  0  0  0  0  0  0  0  0  0  0
    4.5975   -0.9488    2.5467 H   0  0  0  0  0  0  0  0  0  0  0  0
    5.4939   -1.0668   -2.0475 H   0  0  0  0  0  0  0  0  0  0  0  0
    4.6655   -2.6283   -1.8230 H   0  0  0  0  0  0  0  0  0  0  0  0
   -4.7125   -3.5670    1.0208 H   0  0  0  0  0  0  0  0  0  0  0  0
   -4.5904   -3.7039   -0.7516 H   0  0  0  0  0  0  0  0  0  0  0  0
  1 10  2  0  0  0  0
  2 18  1  0  0  0  0
  2 25  1  0  0  0  0
  3 21  1  0  0  0  0
  3 26  1  0  0  0  0
  4 22  1  0  0  0  0
  4 26  1  0  0  0  0
  5 23  1  0  0  0  0
  5 25  1  0  0  0  0
  6  7  1  0  0  0  0
  6 11  1  0  0  0  0
  6 17  1  0  0  0  0
  7  8  1  0  0  0  0
  7  9  1  0  0  0  0
  7 10  1  0  0  0  0
  8 12  1  0  0  0  0
  8 27  1  0  0  0  0
  8 28  1  0  0  0  0
  9 13  1  0  0  0  0
  9 16  2  0  0  0  0
 10 14  1  0  0  0  0
 11 15  1  0  0  0  0
 11 29  1  0  0  0  0
 11 30  1  0  0  0  0
 12 14  2  0  0  0  0
 12 20  1  0  0  0  0
 13 15  1  0  0  0  0
 13 19  2  0  0  0  0
 14 18  1  0  0  0  0
 15 31  1  0  0  0  0
 15 32  1  0  0  0  0
 16 21  1  0  0  0  0
 16 33  1  0  0  0  0
 17 34  1  0  0  0  0
 17 35  1  0  0  0  0
 17 36  1  0  0  0  0
 18 23  2  0  0  0  0
 19 22  1  0  0  0  0
 19 37  1  0  0  0  0
 20 24  2  0  0  0  0
 20 38  1  0  0  0  0
 21 22  2  0  0  0  0
 23 24  1  0  0  0  0
 24 39  1  0  0  0  0
 25 40  1  0  0  0  0
 25 41  1  0  0  0  0
 26 42  1  0  0  0  0
 26 43  1  0  0  0  0
M  END
> <PUBCHEM_COMPOUND_CID>
159888

> <PUBCHEM_CONFORMER_RMSD>
0.6

> <PUBCHEM_CONFORMER_DIVERSEORDER>
1
2

> <PUBCHEM_MMFF94_PARTIAL_CHARGES>
30
1 -0.57
10 0.42
11 0.27
12 -0.14
13 -0.14
14 0.09
15 0.14
16 -0.15
17 0.27
18 0.08
19 -0.15
2 -0.36
20 -0.15
21 0.08
22 0.08
23 0.08
24 -0.15
25 0.56
26 0.56
3 -0.36
33 0.15
37 0.15
38 0.15
39 0.15
4 -0.36
5 -0.36
6 -0.81
7 0.47
8 0.14
9 -0.14

> <PUBCHEM_EFFECTIVE_ROTOR_COUNT>
2

> <PUBCHEM_PHARMACOPHORE_FEATURES>
12
1 1 acceptor
1 2 acceptor
1 3 acceptor
1 4 acceptor
1 5 acceptor
1 6 cation
5 2 5 18 23 25 rings
5 3 4 21 22 26 rings
5 7 8 10 12 14 rings
6 12 14 18 20 23 24 rings
6 6 7 9 11 13 15 rings
6 9 13 16 19 21 22 rings

> <PUBCHEM_HEAVY_ATOM_COUNT>
26

> <PUBCHEM_ATOM_DEF_STEREO_COUNT>
1

> <PUBCHEM_ATOM_UDEF_STEREO_COUNT>
0

> <PUBCHEM_BOND_DEF_STEREO_COUNT>
0

> <PUBCHEM_BOND_UDEF_STEREO_COUNT>
0

> <PUBCHEM_ISOTOPIC_ATOM_COUNT>
0

> <PUBCHEM_COMPONENT_COUNT>
1

> <PUBCHEM_CACTVS_TAUTO_COUNT>
1

> <PUBCHEM_CONFORMER_ID>
0002709000000001

> <PUBCHEM_MMFF94_ENERGY>
81.3577

> <PUBCHEM_FEATURE_SELFOVERLAP>
61.305

> <PUBCHEM_SHAPE_FINGERPRINT>
10319926 262 18124571143240239978
10369192 42 17772170163325696024
11370993 144 17346600729395950027
11582403 64 16113379588648009608
11720765 8 12471400274083263920
12236239 1 17386858205222999596
12363563 72 18338518646356774331
12553582 1 18334576850000332507
12714826 92 18201157659341384264
12788726 201 18115028489473637865
13140716 1 18339640144291455977
13583140 156 17774427288270384910
14251757 5 18187654608533230703
14790565 3 17619635678943683401
14910302 57 18122623847748919398
15342816 4 18187355558692555642
16752209 62 18188199910639703449
16945 1 18264199214813305528
17492 89 18051131694730165551
17804303 29 18412543210877698785
1813 80 18408601495656279737
18186145 218 11675159207518505844
20600515 1 18339062818407742409
20905425 154 18197216953643716391
21033648 29 17489011695871063091
21065201 7 18341044100016869298
21421861 104 18118404188198419585
21452121 199 18265891543792141057
23184049 29 18336539538443580761
23366157 5 17897727801967554237
23557571 272 18200594687639190212
23559900 14 18413387614386092540
3004659 81 18113899389921836423
335352 9 18410012131448698061
463206 1 18187077399310051723
474 4 13182745891419443115
59755656 215 18338793408716384999
602551 16 18338794512127029306
6669772 16 17477778239411814564
6823239 73 18343018900415358360
7364860 26 18050004699205326657
7970288 3 18336828688284983859

> <PUBCHEM_SHAPE_MULTIPOLES>
500.74
9.2
3.43
1.46
1.83
1.37
0.18
-8.22
-0.42
-3.64
-0.3
2.12
-0.11
0.72

> <PUBCHEM_SHAPE_SELFOVERLAP>
1154.06

> <PUBCHEM_SHAPE_VOLUME>
259.4

> <PUBCHEM_COORDINATE_TYPE>
2
5
10

$$$$
