442236
  -OEChem-02172602293D

 50 54  0     1  0  0  0  0  0999 V2000
    0.5850   -0.7758   -1.9272 O   0  0  0  0  0  0  0  0  0  0  0  0
    3.3749    0.4527   -1.9756 O   0  0  0  0  0  0  0  0  0  0  0  0
    4.7903    1.8212   -0.5853 O   0  0  0  0  0  0  0  0  0  0  0  0
   -2.1722    2.8263    0.8216 O   0  0  0  0  0  0  0  0  0  0  0  0
   -4.4271    1.8947   -0.5039 O   0  0  0  0  0  0  0  0  0  0  0  0
   -0.4063   -3.0498    0.3867 N   0  0  2  0  0  0  0  0  0  0  0  0
    0.0174   -1.6141    0.3935 C   0  0  2  0  0  0  0  0  0  0  0  0
    1.1002   -1.3613   -0.7434 C   0  0  2  0  0  0  0  0  0  0  0  0
    0.8333   -1.3394    1.7165 C   0  0  0  0  0  0  0  0  0  0  0  0
   -1.1861   -0.6625    0.2004 C   0  0  0  0  0  0  0  0  0  0  0  0
    2.0713   -0.4205   -0.1000 C   0  0  0  0  0  0  0  0  0  0  0  0
    1.9207   -0.4027    1.2875 C   0  0  0  0  0  0  0  0  0  0  0  0
   -1.1978   -3.3769   -0.8043 C   0  0  0  0  0  0  0  0  0  0  0  0
   -2.3371   -1.1198   -0.4805 C   0  0  0  0  0  0  0  0  0  0  0  0
   -2.4791   -2.5543   -0.9244 C   0  0  0  0  0  0  0  0  0  0  0  0
    3.0603    0.3486   -0.6592 C   0  0  0  0  0  0  0  0  0  0  0  0
   -1.1020   -3.4866    1.6047 C   0  0  0  0  0  0  0  0  0  0  0  0
   -1.1609    0.6788    0.6245 C   0  0  0  0  0  0  0  0  0  0  0  0
    2.7422    0.3734    2.1072 C   0  0  0  0  0  0  0  0  0  0  0  0
   -3.4178   -0.2501   -0.7048 C   0  0  0  0  0  0  0  0  0  0  0  0
    3.8695    1.1263    0.1395 C   0  0  0  0  0  0  0  0  0  0  0  0
    3.7355    1.1618    1.5193 C   0  0  0  0  0  0  0  0  0  0  0  0
   -2.2401    1.5348    0.3921 C   0  0  0  0  0  0  0  0  0  0  0  0
   -3.3678    1.0714   -0.2731 C   0  0  0  0  0  0  0  0  0  0  0  0
    4.4687    1.3910   -1.9241 C   0  0  0  0  0  0  0  0  0  0  0  0
   -2.6543    3.0979    2.1359 C   0  0  0  0  0  0  0  0  0  0  0  0
   -4.4205    2.6349   -1.7235 C   0  0  0  0  0  0  0  0  0  0  0  0
    1.6420   -2.2812   -0.9982 H   0  0  0  0  0  0  0  0  0  0  0  0
    1.3366   -2.2437    2.0813 H   0  0  0  0  0  0  0  0  0  0  0  0
    0.2149   -0.9256    2.5197 H   0  0  0  0  0  0  0  0  0  0  0  0
   -1.4495   -4.4456   -0.8142 H   0  0  0  0  0  0  0  0  0  0  0  0
   -0.5843   -3.2454   -1.7014 H   0  0  0  0  0  0  0  0  0  0  0  0
   -3.2622   -3.0183   -0.3109 H   0  0  0  0  0  0  0  0  0  0  0  0
   -2.8192   -2.5832   -1.9668 H   0  0  0  0  0  0  0  0  0  0  0  0
   -0.4415   -3.4682    2.4765 H   0  0  0  0  0  0  0  0  0  0  0  0
   -1.4225   -4.5308    1.5080 H   0  0  0  0  0  0  0  0  0  0  0  0
   -1.9858   -2.8836    1.8370 H   0  0  0  0  0  0  0  0  0  0  0  0
   -0.2966    1.0868    1.1390 H   0  0  0  0  0  0  0  0  0  0  0  0
    2.6157    0.3658    3.1850 H   0  0  0  0  0  0  0  0  0  0  0  0
    0.0159   -1.4254   -2.3690 H   0  0  0  0  0  0  0  0  0  0  0  0
   -4.3067   -0.6141   -1.2159 H   0  0  0  0  0  0  0  0  0  0  0  0
    4.3867    1.7766    2.1310 H   0  0  0  0  0  0  0  0  0  0  0  0
    4.2045    2.2712   -2.5215 H   0  0  0  0  0  0  0  0  0  0  0  0
    5.3556    0.9205   -2.3638 H   0  0  0  0  0  0  0  0  0  0  0  0
   -3.7150    2.8405    2.2186 H   0  0  0  0  0  0  0  0  0  0  0  0
   -2.5381    4.1677    2.3291 H   0  0  0  0  0  0  0  0  0  0  0  0
   -2.0736    2.5427    2.8794 H   0  0  0  0  0  0  0  0  0  0  0  0
   -3.5491    3.2958   -1.7684 H   0  0  0  0  0  0  0  0  0  0  0  0
   -5.3259    3.2469   -1.7576 H   0  0  0  0  0  0  0  0  0  0  0  0
   -4.4232    1.9570   -2.5830 H   0  0  0  0  0  0  0  0  0  0  0  0
  1  8  1  0  0  0  0
  1 40  1  0  0  0  0
  2 16  1  0  0  0  0
  2 25  1  0  0  0  0
  3 21  1  0  0  0  0
  3 25  1  0  0  0  0
  4 23  1  0  0  0  0
  4 26  1  0  0  0  0
  5 24  1  0  0  0  0
  5 27  1  0  0  0  0
  6  7  1  0  0  0  0
  6 13  1  0  0  0  0
  6 17  1  0  0  0  0
  7  8  1  0  0  0  0
  7  9  1  0  0  0  0
  7 10  1  0  0  0  0
  8 11  1  0  0  0  0
  8 28  1  0  0  0  0
  9 12  1  0  0  0  0
  9 29  1  0  0  0  0
  9 30  1  0  0  0  0
 10 14  1  0  0  0  0
 10 18  2  0  0  0  0
 11 12  2  0  0  0  0
 11 16  1  0  0  0  0
 12 19  1  0  0  0  0
 13 15  1  0  0  0  0
 13 31  1  0  0  0  0
 13 32  1  0  0  0  0
 14 15  1  0  0  0  0
 14 20  2  0  0  0  0
 15 33  1  0  0  0  0
 15 34  1  0  0  0  0
 16 21  2  0  0  0  0
 17 35  1  0  0  0  0
 17 36  1  0  0  0  0
 17 37  1  0  0  0  0
 18 23  1  0  0  0  0
 18 38  1  0  0  0  0
 19 22  2  0  0  0  0
 19 39  1  0  0  0  0
 20 24  1  0  0  0  0
 20 41  1  0  0  0  0
 21 22  1  0  0  0  0
 22 42  1  0  0  0  0
 23 24  2  0  0  0  0
 25 43  1  0  0  0  0
 25 44  1  0  0  0  0
 26 45  1  0  0  0  0
 26 46  1  0  0  0  0
 26 47  1  0  0  0  0
 27 48  1  0  0  0  0
 27 49  1  0  0  0  0
 27 50  1  0  0  0  0
M  END
> <PUBCHEM_COMPOUND_CID>
442236

> <PUBCHEM_CONFORMER_RMSD>
0.8

> <PUBCHEM_CONFORMER_DIVERSEORDER>
3
4
5
1
2

> <PUBCHEM_MMFF94_PARTIAL_CHARGES>
32
1 -0.68
10 -0.14
11 -0.14
12 -0.14
13 0.27
14 -0.14
15 0.14
16 0.08
17 0.27
18 -0.15
19 -0.15
2 -0.36
20 -0.15
21 0.08
22 -0.15
23 0.08
24 0.08
25 0.56
26 0.28
27 0.28
3 -0.36
38 0.15
39 0.15
4 -0.36
40 0.4
41 0.15
42 0.15
5 -0.36
6 -0.81
7 0.41
8 0.42
9 0.14

> <PUBCHEM_EFFECTIVE_ROTOR_COUNT>
3.6

> <PUBCHEM_PHARMACOPHORE_FEATURES>
12
1 1 acceptor
1 1 donor
1 2 acceptor
1 3 acceptor
1 4 acceptor
1 5 acceptor
1 6 cation
5 2 3 16 21 25 rings
5 7 8 9 11 12 rings
6 10 14 18 20 23 24 rings
6 11 12 16 19 21 22 rings
6 6 7 10 13 14 15 rings

> <PUBCHEM_HEAVY_ATOM_COUNT>
27

> <PUBCHEM_ATOM_DEF_STEREO_COUNT>
2

> <PUBCHEM_ATOM_UDEF_STEREO_COUNT>
0

> <PUBCHEM_BOND_DEF_STEREO_COUNT>
0

> <PUBCHEM_BOND_UDEF_STEREO_COUNT>
0

> <PUBCHEM_ISOTOPIC_ATOM_COUNT>
0

> <PUBCHEM_COMPONENT_COUNT>
1

> <PUBCHEM_CACTVS_TAUTO_COUNT>
1

> <PUBCHEM_CONFORMER_ID>
0006BF7C00000003

> <PUBCHEM_MMFF94_ENERGY>
111.8027

> <PUBCHEM_FEATURE_SELFOVERLAP>
61.156

> <PUBCHEM_SHAPE_FINGERPRINT>
10498660 4 18272081703951566873
11640471 11 17895187831217031398
12156800 1 15513830367613427325
12160290 23 18338799021716297571
12173636 292 18342167852360793295
12633257 1 13479428161946202541
12788726 201 18117272773279716995
13134695 92 17034725128351391707
133893 2 17833273013228929489
13583140 156 16226328234807402917
13965767 371 17677321715265498164
14142880 1 17895188956656738599
14713325 29 18122657043382377334
14739800 52 17976238451835802576
14790565 3 18200600185936399113
15163728 17 18336554806714708197
15475509 35 11597143498052920005
15534591 1 18261116300220585254
16752209 62 18337662135167144803
16945 1 18268143339179126754
17818456 19 18339907235359337170
17980427 23 17192602950801052251
20465049 17 17268096561504179401
20715895 44 17393860896545151797
21033650 10 18265064698721957006
21524375 3 18266458715508438987
21756936 100 17313967332317344540
22149856 69 18197212556905285281
22182313 1 17345470565013850298
22907989 373 18124051266711729420
23557571 272 18129098012293232218
23559900 14 18058159536435900974
24893989 43 15903122437480263493
394222 165 17970612010043464875
469060 322 14565075124321241170
474 4 18188490147196782137
484985 159 12462196206297050756
7808743 9 18334576892781369180
9981440 41 18338791316677246802

> <PUBCHEM_SHAPE_MULTIPOLES>
521.32
8.08
3.83
2
3.43
1.34
-0.17
-7.64
2.95
-4.18
-0.69
0.96
-0.6
-0.62

> <PUBCHEM_SHAPE_SELFOVERLAP>
1162.218

> <PUBCHEM_SHAPE_VOLUME>
279.4

> <PUBCHEM_COORDINATE_TYPE>
2
5
10

$$$$
