632772
  -OEChem-02172602573D

 46 50  0     1  0  0  0  0  0999 V2000
    0.1614   -0.5066    2.4962 O   0  0  0  0  0  0  0  0  0  0  0  0
   -0.6578   -2.2850    0.3035 O   0  0  0  0  0  0  0  0  0  0  0  0
   -3.5610   -2.1833   -0.5767 O   0  0  0  0  0  0  0  0  0  0  0  0
   -5.4425   -0.7019   -0.8506 O   0  0  0  0  0  0  0  0  0  0  0  0
    5.3431   -0.6504   -1.2569 O   0  0  0  0  0  0  0  0  0  0  0  0
    4.9104   -1.4618    1.3627 O   0  0  0  0  0  0  0  0  0  0  0  0
    0.2027    2.3084    0.2967 N   0  0  1  0  0  0  0  0  0  0  0  0
   -0.5505    1.2866    1.0363 C   0  0  2  0  0  0  0  0  0  0  0  0
    0.1676   -0.1195    1.1116 C   0  0  1  0  0  0  0  0  0  0  0  0
   -1.9400    0.9464    0.5368 C   0  0  0  0  0  0  0  0  0  0  0  0
    1.5510   -0.2458    0.4790 C   0  0  0  0  0  0  0  0  0  0  0  0
   -0.8322   -1.0966    0.5089 C   0  0  0  0  0  0  0  0  0  0  0  0
   -2.0817   -0.4069    0.2339 C   0  0  0  0  0  0  0  0  0  0  0  0
    0.2710    2.1687   -1.1609 C   0  0  0  0  0  0  0  0  0  0  0  0
    1.7884    0.1669   -0.8542 C   0  0  0  0  0  0  0  0  0  0  0  0
    0.6952    0.7927   -1.6834 C   0  0  0  0  0  0  0  0  0  0  0  0
   -3.2684   -0.9057   -0.2324 C   0  0  0  0  0  0  0  0  0  0  0  0
   -3.0401    1.7990    0.4018 C   0  0  0  0  0  0  0  0  0  0  0  0
   -0.1258    3.6785    0.6791 C   0  0  0  0  0  0  0  0  0  0  0  0
    2.6304   -0.7909    1.2000 C   0  0  0  0  0  0  0  0  0  0  0  0
    3.0668    0.0224   -1.4206 C   0  0  0  0  0  0  0  0  0  0  0  0
   -4.3377   -0.0564   -0.3842 C   0  0  0  0  0  0  0  0  0  0  0  0
   -4.2583    1.2928   -0.0733 C   0  0  0  0  0  0  0  0  0  0  0  0
    3.8958   -0.9291    0.6251 C   0  0  0  0  0  0  0  0  0  0  0  0
    4.1139   -0.5244   -0.6850 C   0  0  0  0  0  0  0  0  0  0  0  0
   -4.9409   -2.0491   -0.9747 C   0  0  0  0  0  0  0  0  0  0  0  0
    6.2390    0.4511   -1.1188 C   0  0  0  0  0  0  0  0  0  0  0  0
   -0.6696    1.6420    2.0702 H   0  0  0  0  0  0  0  0  0  0  0  0
    1.0129    2.8909   -1.5288 H   0  0  0  0  0  0  0  0  0  0  0  0
   -0.6814    2.4452   -1.6311 H   0  0  0  0  0  0  0  0  0  0  0  0
    1.0280    0.9080   -2.7234 H   0  0  0  0  0  0  0  0  0  0  0  0
   -0.1561    0.1092   -1.7452 H   0  0  0  0  0  0  0  0  0  0  0  0
   -2.9715    2.8482    0.6671 H   0  0  0  0  0  0  0  0  0  0  0  0
    0.6282    4.3716    0.2883 H   0  0  0  0  0  0  0  0  0  0  0  0
   -0.1154    3.8011    1.7677 H   0  0  0  0  0  0  0  0  0  0  0  0
   -1.0996    4.0010    0.3006 H   0  0  0  0  0  0  0  0  0  0  0  0
   -0.7302   -0.3717    2.8605 H   0  0  0  0  0  0  0  0  0  0  0  0
    2.4946   -1.1234    2.2268 H   0  0  0  0  0  0  0  0  0  0  0  0
    3.2478    0.3445   -2.4440 H   0  0  0  0  0  0  0  0  0  0  0  0
   -5.1175    1.9451   -0.1873 H   0  0  0  0  0  0  0  0  0  0  0  0
   -5.5523   -2.7099   -0.3496 H   0  0  0  0  0  0  0  0  0  0  0  0
   -5.0372   -2.3646   -2.0201 H   0  0  0  0  0  0  0  0  0  0  0  0
    5.7030   -1.5212    0.8018 H   0  0  0  0  0  0  0  0  0  0  0  0
    6.4257    0.6706   -0.0629 H   0  0  0  0  0  0  0  0  0  0  0  0
    5.8350    1.3362   -1.6201 H   0  0  0  0  0  0  0  0  0  0  0  0
    7.1870    0.1829   -1.5930 H   0  0  0  0  0  0  0  0  0  0  0  0
  1  9  1  0  0  0  0
  1 37  1  0  0  0  0
  2 12  2  0  0  0  0
  3 17  1  0  0  0  0
  3 26  1  0  0  0  0
  4 22  1  0  0  0  0
  4 26  1  0  0  0  0
  5 25  1  0  0  0  0
  5 27  1  0  0  0  0
  6 24  1  0  0  0  0
  6 43  1  0  0  0  0
  7  8  1  0  0  0  0
  7 14  1  0  0  0  0
  7 19  1  0  0  0  0
  8  9  1  0  0  0  0
  8 10  1  0  0  0  0
  8 28  1  0  0  0  0
  9 11  1  0  0  0  0
  9 12  1  0  0  0  0
 10 13  2  0  0  0  0
 10 18  1  0  0  0  0
 11 15  1  0  0  0  0
 11 20  2  0  0  0  0
 12 13  1  0  0  0  0
 13 17  1  0  0  0  0
 14 16  1  0  0  0  0
 14 29  1  0  0  0  0
 14 30  1  0  0  0  0
 15 16  1  0  0  0  0
 15 21  2  0  0  0  0
 16 31  1  0  0  0  0
 16 32  1  0  0  0  0
 17 22  2  0  0  0  0
 18 23  2  0  0  0  0
 18 33  1  0  0  0  0
 19 34  1  0  0  0  0
 19 35  1  0  0  0  0
 19 36  1  0  0  0  0
 20 24  1  0  0  0  0
 20 38  1  0  0  0  0
 21 25  1  0  0  0  0
 21 39  1  0  0  0  0
 22 23  1  0  0  0  0
 23 40  1  0  0  0  0
 24 25  2  0  0  0  0
 26 41  1  0  0  0  0
 26 42  1  0  0  0  0
 27 44  1  0  0  0  0
 27 45  1  0  0  0  0
 27 46  1  0  0  0  0
M  END
> <PUBCHEM_COMPOUND_CID>
632772

> <PUBCHEM_CONFORMER_RMSD>
0.6

> <PUBCHEM_CONFORMER_DIVERSEORDER>
2
16
10
12
1
8
14
19
11
3
13
6
9
17
5
7
18
4
15

> <PUBCHEM_MMFF94_PARTIAL_CHARGES>
33
1 -0.68
10 -0.14
11 -0.14
12 0.42
13 0.09
14 0.27
15 -0.14
16 0.14
17 0.08
18 -0.15
19 0.27
2 -0.57
20 -0.15
21 -0.15
22 0.08
23 -0.15
24 0.08
25 0.08
26 0.56
27 0.28
3 -0.36
33 0.15
37 0.4
38 0.15
39 0.15
4 -0.36
40 0.15
43 0.45
5 -0.36
6 -0.53
7 -0.81
8 0.41
9 0.48

> <PUBCHEM_EFFECTIVE_ROTOR_COUNT>
2.2

> <PUBCHEM_PHARMACOPHORE_FEATURES>
13
1 1 acceptor
1 1 donor
1 2 acceptor
1 3 acceptor
1 4 acceptor
1 5 acceptor
1 6 donor
1 7 cation
5 3 4 17 22 26 rings
5 8 9 10 12 13 rings
6 10 13 17 18 22 23 rings
6 11 15 20 21 24 25 rings
7 7 8 9 11 14 15 16 rings

> <PUBCHEM_HEAVY_ATOM_COUNT>
27

> <PUBCHEM_ATOM_DEF_STEREO_COUNT>
0

> <PUBCHEM_ATOM_UDEF_STEREO_COUNT>
2

> <PUBCHEM_BOND_DEF_STEREO_COUNT>
0

> <PUBCHEM_BOND_UDEF_STEREO_COUNT>
0

> <PUBCHEM_ISOTOPIC_ATOM_COUNT>
0

> <PUBCHEM_COMPONENT_COUNT>
1

> <PUBCHEM_CACTVS_TAUTO_COUNT>
3

> <PUBCHEM_CONFORMER_ID>
0009A7C400000002

> <PUBCHEM_MMFF94_ENERGY>
101.2552

> <PUBCHEM_FEATURE_SELFOVERLAP>
66.411

> <PUBCHEM_SHAPE_FINGERPRINT>
10062212 137 18333734589744013707
11578080 2 17752169921212664364
12236239 1 18040998405924564315
12788726 201 18338242540078816312
12969540 114 15791731905795330714
13140716 1 18340769347196733601
13544653 18 16415203360091652895
13782708 43 17202780198321907990
13947920 75 18408045100487752634
14294032 229 18196089951091016365
14910302 57 18057608655746386710
14955137 171 18265918903092493817
15420108 30 16747324862209562688
16945 1 18198911309656912921
17349148 13 18261116248765126906
17492 54 17821729450627728255
1813 80 18202280324937542337
18222031 100 18272930544244741998
200 152 18041001721908231604
20511986 3 18114451310657392572
20691752 17 17749101218703435353
20775438 99 17261569182162536807
21033648 29 16702009855948433051
21033650 10 18122369916091288980
21267235 1 18341613768053729711
21304303 64 16950576470940848309
23402539 116 18412829057893746548
23419403 2 17702075097830457809
23557571 272 17774731865591382933
23559900 14 18202562895452874888
335352 9 18341891892966219981
34797466 226 17917716837803547444
3633792 109 17458618966040121202
465052 167 15051736421390487750
484989 97 17752776994135296259
7164475 11 18042962065526027510

> <PUBCHEM_SHAPE_MULTIPOLES>
515.45
10.66
2.52
1.52
5.05
1.66
0.21
-4.75
-3.96
-1.78
0.21
1.05
-0.08
-1.29

> <PUBCHEM_SHAPE_SELFOVERLAP>
1163.513

> <PUBCHEM_SHAPE_VOLUME>
271.5

> <PUBCHEM_COORDINATE_TYPE>
2
5
10

$$$$
