101316764
  -OEChem-02172602293D

 52 56  0     1  0  0  0  0  0999 V2000
    0.3981    1.1442   -1.1907 O   0  0  0  0  0  0  0  0  0  0  0  0
    3.2451   -0.0429   -1.5309 O   0  0  0  0  0  0  0  0  0  0  0  0
    4.6540   -1.7765   -0.6254 O   0  0  0  0  0  0  0  0  0  0  0  0
   -4.4443   -2.2122   -1.1041 O   0  0  0  0  0  0  0  0  0  0  0  0
   -2.1982   -3.4337   -0.0226 O   0  0  0  0  0  0  0  0  0  0  0  0
    2.1686    2.4562   -1.8843 O   0  0  0  0  0  0  0  0  0  0  0  0
   -0.8003    2.3192    1.6589 N   0  0  1  0  0  0  0  0  0  0  0  0
   -0.2856    0.9855    1.2208 C   0  0  1  0  0  0  0  0  0  0  0  0
    0.8642    1.1959    0.1471 C   0  0  1  0  0  0  0  0  0  0  0  0
    0.4877    0.3094    2.4177 C   0  0  0  0  0  0  0  0  0  0  0  0
   -1.4134    0.1003    0.6344 C   0  0  0  0  0  0  0  0  0  0  0  0
    1.8393    0.1038    0.4630 C   0  0  0  0  0  0  0  0  0  0  0  0
    1.6341   -0.3931    1.7530 C   0  0  0  0  0  0  0  0  0  0  0  0
   -1.5505    2.9835    0.5861 C   0  0  0  0  0  0  0  0  0  0  0  0
   -2.5617    0.7070    0.0757 C   0  0  0  0  0  0  0  0  0  0  0  0
   -2.7800    2.1980    0.1366 C   0  0  0  0  0  0  0  0  0  0  0  0
    2.8759   -0.4049   -0.2759 C   0  0  0  0  0  0  0  0  0  0  0  0
   -1.5753    2.2950    2.9049 C   0  0  0  0  0  0  0  0  0  0  0  0
   -1.3207   -1.3028    0.5805 C   0  0  0  0  0  0  0  0  0  0  0  0
    2.4513   -1.3855    2.2971 C   0  0  0  0  0  0  0  0  0  0  0  0
   -3.5721   -0.0833   -0.4989 C   0  0  0  0  0  0  0  0  0  0  0  0
    3.6810   -1.3924    0.2474 C   0  0  0  0  0  0  0  0  0  0  0  0
    3.4951   -1.9021    1.5241 C   0  0  0  0  0  0  0  0  0  0  0  0
   -2.3296   -2.0774    0.0025 C   0  0  0  0  0  0  0  0  0  0  0  0
   -3.4544   -1.4685   -0.5381 C   0  0  0  0  0  0  0  0  0  0  0  0
    1.1482    1.8220   -2.1159 C   0  0  0  0  0  0  0  0  0  0  0  0
    4.3691   -0.9193   -1.7502 C   0  0  0  0  0  0  0  0  0  0  0  0
    0.5390    1.6803   -3.4778 C   0  0  0  0  0  0  0  0  0  0  0  0
   -5.5643   -1.5055   -1.6352 C   0  0  0  0  0  0  0  0  0  0  0  0
    1.3691    2.1511    0.3555 H   0  0  0  0  0  0  0  0  0  0  0  0
   -0.1417   -0.3715    2.9999 H   0  0  0  0  0  0  0  0  0  0  0  0
    0.9295    1.0547    3.0910 H   0  0  0  0  0  0  0  0  0  0  0  0
   -0.8928    3.1589   -0.2726 H   0  0  0  0  0  0  0  0  0  0  0  0
   -1.8546    3.9903    0.9007 H   0  0  0  0  0  0  0  0  0  0  0  0
   -3.0888    2.5648   -0.8499 H   0  0  0  0  0  0  0  0  0  0  0  0
   -3.6070    2.3900    0.8321 H   0  0  0  0  0  0  0  0  0  0  0  0
   -0.9518    2.0198    3.7608 H   0  0  0  0  0  0  0  0  0  0  0  0
   -2.4261    1.6068    2.8714 H   0  0  0  0  0  0  0  0  0  0  0  0
   -1.9595    3.2956    3.1356 H   0  0  0  0  0  0  0  0  0  0  0  0
   -0.4557   -1.8167    0.9867 H   0  0  0  0  0  0  0  0  0  0  0  0
    2.2817   -1.7529    3.3040 H   0  0  0  0  0  0  0  0  0  0  0  0
   -4.4309    0.4506   -0.8936 H   0  0  0  0  0  0  0  0  0  0  0  0
    4.1442   -2.6759    1.9194 H   0  0  0  0  0  0  0  0  0  0  0  0
    5.2547   -0.3082   -1.9587 H   0  0  0  0  0  0  0  0  0  0  0  0
    4.1600   -1.5460   -2.6248 H   0  0  0  0  0  0  0  0  0  0  0  0
    0.5260    0.6268   -3.7682 H   0  0  0  0  0  0  0  0  0  0  0  0
    1.1391    2.2361   -4.2038 H   0  0  0  0  0  0  0  0  0  0  0  0
   -0.4735    2.0916   -3.4741 H   0  0  0  0  0  0  0  0  0  0  0  0
   -1.3561   -3.6805    0.3967 H   0  0  0  0  0  0  0  0  0  0  0  0
   -6.2500   -2.2528   -2.0480 H   0  0  0  0  0  0  0  0  0  0  0  0
   -5.2727   -0.8505   -2.4634 H   0  0  0  0  0  0  0  0  0  0  0  0
   -6.1120   -0.9704   -0.8520 H   0  0  0  0  0  0  0  0  0  0  0  0
  1  9  1  0  0  0  0
  1 26  1  0  0  0  0
  2 17  1  0  0  0  0
  2 27  1  0  0  0  0
  3 22  1  0  0  0  0
  3 27  1  0  0  0  0
  4 25  1  0  0  0  0
  4 29  1  0  0  0  0
  5 24  1  0  0  0  0
  5 49  1  0  0  0  0
  6 26  2  0  0  0  0
  7  8  1  0  0  0  0
  7 14  1  0  0  0  0
  7 18  1  0  0  0  0
  8  9  1  0  0  0  0
  8 10  1  0  0  0  0
  8 11  1  0  0  0  0
  9 12  1  0  0  0  0
  9 30  1  0  0  0  0
 10 13  1  0  0  0  0
 10 31  1  0  0  0  0
 10 32  1  0  0  0  0
 11 15  1  0  0  0  0
 11 19  2  0  0  0  0
 12 13  2  0  0  0  0
 12 17  1  0  0  0  0
 13 20  1  0  0  0  0
 14 16  1  0  0  0  0
 14 33  1  0  0  0  0
 14 34  1  0  0  0  0
 15 16  1  0  0  0  0
 15 21  2  0  0  0  0
 16 35  1  0  0  0  0
 16 36  1  0  0  0  0
 17 22  2  0  0  0  0
 18 37  1  0  0  0  0
 18 38  1  0  0  0  0
 18 39  1  0  0  0  0
 19 24  1  0  0  0  0
 19 40  1  0  0  0  0
 20 23  2  0  0  0  0
 20 41  1  0  0  0  0
 21 25  1  0  0  0  0
 21 42  1  0  0  0  0
 22 23  1  0  0  0  0
 23 43  1  0  0  0  0
 24 25  2  0  0  0  0
 26 28  1  0  0  0  0
 27 44  1  0  0  0  0
 27 45  1  0  0  0  0
 28 46  1  0  0  0  0
 28 47  1  0  0  0  0
 28 48  1  0  0  0  0
 29 50  1  0  0  0  0
 29 51  1  0  0  0  0
 29 52  1  0  0  0  0
M  END
> <PUBCHEM_COMPOUND_CID>
101316764

> <PUBCHEM_CONFORMER_RMSD>
0.8

> <PUBCHEM_CONFORMER_DIVERSEORDER>
1
3
2
4

> <PUBCHEM_MMFF94_PARTIAL_CHARGES>
34
1 -0.43
10 0.14
11 -0.14
12 -0.14
13 -0.14
14 0.27
15 -0.14
16 0.14
17 0.08
18 0.27
19 -0.15
2 -0.36
20 -0.15
21 -0.15
22 0.08
23 -0.15
24 0.08
25 0.08
26 0.66
27 0.56
28 0.06
29 0.28
3 -0.36
4 -0.36
40 0.15
41 0.15
42 0.15
43 0.15
49 0.45
5 -0.53
6 -0.57
7 -0.81
8 0.41
9 0.42

> <PUBCHEM_EFFECTIVE_ROTOR_COUNT>
4.6

> <PUBCHEM_PHARMACOPHORE_FEATURES>
11
1 2 acceptor
1 3 acceptor
1 4 acceptor
1 5 donor
1 6 acceptor
1 7 cation
5 2 3 17 22 27 rings
5 8 9 10 12 13 rings
6 11 15 19 21 24 25 rings
6 12 13 17 20 22 23 rings
6 7 8 11 14 15 16 rings

> <PUBCHEM_HEAVY_ATOM_COUNT>
29

> <PUBCHEM_ATOM_DEF_STEREO_COUNT>
2

> <PUBCHEM_ATOM_UDEF_STEREO_COUNT>
0

> <PUBCHEM_BOND_DEF_STEREO_COUNT>
0

> <PUBCHEM_BOND_UDEF_STEREO_COUNT>
0

> <PUBCHEM_ISOTOPIC_ATOM_COUNT>
0

> <PUBCHEM_COMPONENT_COUNT>
1

> <PUBCHEM_CACTVS_TAUTO_COUNT>
28

> <PUBCHEM_CONFORMER_ID>
0609F89C00000001

> <PUBCHEM_MMFF94_ENERGY>
101.1717

> <PUBCHEM_FEATURE_SELFOVERLAP>
56.081

> <PUBCHEM_SHAPE_FINGERPRINT>
10305334 12 13021220581343255590
107951 10 16912571662511273265
11578080 2 17971723663386121616
12035759 4 18187369830504662134
12293681 25 16127268671269851053
12363563 72 17704072936464839175
12553582 1 18412547638931576171
12788726 201 18413672413572421435
13009979 54 18336263448875688323
13583140 156 16772655612937741958
14068700 675 18342168968783420734
14537116 161 16373775970488980783
16752209 62 18338507552445751603
16945 1 18269265764420153249
20600515 1 18192687098796220130
23419403 2 17401707251321308649
23557571 272 18201988950235178066
23559900 14 17988355967273197440
238 59 16806174391992055766
25222932 49 17195998685057933055
6438718 38 17173492360489306988
6669772 16 17053580047919552328

> <PUBCHEM_SHAPE_MULTIPOLES>
556.61
7.86
3.21
2.78
1.22
0.16
0.46
-6.5
3.61
2.11
0.16
-1.13
1.61
-2.39

> <PUBCHEM_SHAPE_SELFOVERLAP>
1240.752

> <PUBCHEM_SHAPE_VOLUME>
296.2

> <PUBCHEM_COORDINATE_TYPE>
2
5
10

$$$$
