366269
  -OEChem-02172602293D

 47 51  0     1  0  0  0  0  0999 V2000
    0.6580    0.3958   -2.1337 O   0  0  0  0  0  0  0  0  0  0  0  0
    3.5213   -0.6473   -1.6924 O   0  0  0  0  0  0  0  0  0  0  0  0
    4.8823   -1.6235    0.0409 O   0  0  0  0  0  0  0  0  0  0  0  0
   -4.3570   -2.4171    0.3942 O   0  0  0  0  0  0  0  0  0  0  0  0
   -1.7337   -3.2220   -0.0329 O   0  0  0  0  0  0  0  0  0  0  0  0
   -0.7224    2.8680   -0.3259 N   0  0  2  0  0  0  0  0  0  0  0  0
   -0.1824    1.5043   -0.0331 C   0  0  1  0  0  0  0  0  0  0  0  0
    1.0225    1.1672   -1.0047 C   0  0  1  0  0  0  0  0  0  0  0  0
    0.5251    1.5684    1.3795 C   0  0  0  0  0  0  0  0  0  0  0  0
   -1.3010    0.4331    0.0479 C   0  0  0  0  0  0  0  0  0  0  0  0
    1.9922    0.4403   -0.1249 C   0  0  0  0  0  0  0  0  0  0  0  0
    1.7079    0.6609    1.2255 C   0  0  0  0  0  0  0  0  0  0  0  0
   -1.8429    3.2079    0.5606 C   0  0  0  0  0  0  0  0  0  0  0  0
   -2.6379    0.8227    0.2906 C   0  0  0  0  0  0  0  0  0  0  0  0
   -3.0350    2.2729    0.3896 C   0  0  0  0  0  0  0  0  0  0  0  0
    3.0773   -0.3327   -0.4491 C   0  0  0  0  0  0  0  0  0  0  0  0
   -1.0671    3.1115   -1.7284 C   0  0  0  0  0  0  0  0  0  0  0  0
   -1.0308   -0.9459   -0.0439 C   0  0  0  0  0  0  0  0  0  0  0  0
    2.4950    0.1135    2.2395 C   0  0  0  0  0  0  0  0  0  0  0  0
   -3.6526   -0.1449    0.3945 C   0  0  0  0  0  0  0  0  0  0  0  0
    3.8539   -0.8856    0.5449 C   0  0  0  0  0  0  0  0  0  0  0  0
    3.5898   -0.6839    1.8917 C   0  0  0  0  0  0  0  0  0  0  0  0
   -2.0459   -1.8993    0.0695 C   0  0  0  0  0  0  0  0  0  0  0  0
   -3.3575   -1.4995    0.2858 C   0  0  0  0  0  0  0  0  0  0  0  0
    4.6640   -1.4682   -1.3767 C   0  0  0  0  0  0  0  0  0  0  0  0
   -5.0230   -2.7968   -0.8091 C   0  0  0  0  0  0  0  0  0  0  0  0
    1.5332    2.0770   -1.3455 H   0  0  0  0  0  0  0  0  0  0  0  0
   -0.1263    1.2465    2.1996 H   0  0  0  0  0  0  0  0  0  0  0  0
    0.9054    2.5747    1.5974 H   0  0  0  0  0  0  0  0  0  0  0  0
   -2.1605    4.2450    0.3938 H   0  0  0  0  0  0  0  0  0  0  0  0
   -1.5094    3.1864    1.6055 H   0  0  0  0  0  0  0  0  0  0  0  0
   -3.5906    2.5398   -0.5181 H   0  0  0  0  0  0  0  0  0  0  0  0
   -3.7128    2.4121    1.2408 H   0  0  0  0  0  0  0  0  0  0  0  0
   -1.5177    4.1040   -1.8475 H   0  0  0  0  0  0  0  0  0  0  0  0
   -1.7673    2.3737   -2.1333 H   0  0  0  0  0  0  0  0  0  0  0  0
   -0.1747    3.1242   -2.3612 H   0  0  0  0  0  0  0  0  0  0  0  0
   -0.0178   -1.3017   -0.2024 H   0  0  0  0  0  0  0  0  0  0  0  0
    2.2658    0.3033    3.2832 H   0  0  0  0  0  0  0  0  0  0  0  0
   -0.0280    0.8784   -2.6225 H   0  0  0  0  0  0  0  0  0  0  0  0
   -4.6813    0.1676    0.5629 H   0  0  0  0  0  0  0  0  0  0  0  0
    4.2174   -1.1245    2.6586 H   0  0  0  0  0  0  0  0  0  0  0  0
    5.5566   -1.0131   -1.8211 H   0  0  0  0  0  0  0  0  0  0  0  0
    4.5169   -2.4600   -1.8196 H   0  0  0  0  0  0  0  0  0  0  0  0
   -0.7772   -3.3135   -0.1829 H   0  0  0  0  0  0  0  0  0  0  0  0
   -4.3172   -3.2454   -1.5153 H   0  0  0  0  0  0  0  0  0  0  0  0
   -5.5125   -1.9306   -1.2655 H   0  0  0  0  0  0  0  0  0  0  0  0
   -5.7863   -3.5385   -0.5586 H   0  0  0  0  0  0  0  0  0  0  0  0
  1  8  1  0  0  0  0
  1 39  1  0  0  0  0
  2 16  1  0  0  0  0
  2 25  1  0  0  0  0
  3 21  1  0  0  0  0
  3 25  1  0  0  0  0
  4 24  1  0  0  0  0
  4 26  1  0  0  0  0
  5 23  1  0  0  0  0
  5 44  1  0  0  0  0
  6  7  1  0  0  0  0
  6 13  1  0  0  0  0
  6 17  1  0  0  0  0
  7  8  1  0  0  0  0
  7  9  1  0  0  0  0
  7 10  1  0  0  0  0
  8 11  1  0  0  0  0
  8 27  1  0  0  0  0
  9 12  1  0  0  0  0
  9 28  1  0  0  0  0
  9 29  1  0  0  0  0
 10 14  1  0  0  0  0
 10 18  2  0  0  0  0
 11 12  2  0  0  0  0
 11 16  1  0  0  0  0
 12 19  1  0  0  0  0
 13 15  1  0  0  0  0
 13 30  1  0  0  0  0
 13 31  1  0  0  0  0
 14 15  1  0  0  0  0
 14 20  2  0  0  0  0
 15 32  1  0  0  0  0
 15 33  1  0  0  0  0
 16 21  2  0  0  0  0
 17 34  1  0  0  0  0
 17 35  1  0  0  0  0
 17 36  1  0  0  0  0
 18 23  1  0  0  0  0
 18 37  1  0  0  0  0
 19 22  2  0  0  0  0
 19 38  1  0  0  0  0
 20 24  1  0  0  0  0
 20 40  1  0  0  0  0
 21 22  1  0  0  0  0
 22 41  1  0  0  0  0
 23 24  2  0  0  0  0
 25 42  1  0  0  0  0
 25 43  1  0  0  0  0
 26 45  1  0  0  0  0
 26 46  1  0  0  0  0
 26 47  1  0  0  0  0
M  END
> <PUBCHEM_COMPOUND_CID>
366269

> <PUBCHEM_CONFORMER_RMSD>
0.6

> <PUBCHEM_CONFORMER_DIVERSEORDER>
1
12
7
9
2
6
8
13
4
11
5
10
3

> <PUBCHEM_MMFF94_PARTIAL_CHARGES>
32
1 -0.68
10 -0.14
11 -0.14
12 -0.14
13 0.27
14 -0.14
15 0.14
16 0.08
17 0.27
18 -0.15
19 -0.15
2 -0.36
20 -0.15
21 0.08
22 -0.15
23 0.08
24 0.08
25 0.56
26 0.28
3 -0.36
37 0.15
38 0.15
39 0.4
4 -0.36
40 0.15
41 0.15
44 0.45
5 -0.53
6 -0.81
7 0.41
8 0.42
9 0.14

> <PUBCHEM_EFFECTIVE_ROTOR_COUNT>
2.6

> <PUBCHEM_PHARMACOPHORE_FEATURES>
12
1 1 acceptor
1 1 donor
1 2 acceptor
1 3 acceptor
1 4 acceptor
1 5 donor
1 6 cation
5 2 3 16 21 25 rings
5 7 8 9 11 12 rings
6 10 14 18 20 23 24 rings
6 11 12 16 19 21 22 rings
6 6 7 10 13 14 15 rings

> <PUBCHEM_HEAVY_ATOM_COUNT>
26

> <PUBCHEM_ATOM_DEF_STEREO_COUNT>
0

> <PUBCHEM_ATOM_UDEF_STEREO_COUNT>
2

> <PUBCHEM_BOND_DEF_STEREO_COUNT>
0

> <PUBCHEM_BOND_UDEF_STEREO_COUNT>
0

> <PUBCHEM_ISOTOPIC_ATOM_COUNT>
0

> <PUBCHEM_COMPONENT_COUNT>
1

> <PUBCHEM_CACTVS_TAUTO_COUNT>
3

> <PUBCHEM_CONFORMER_ID>
000596BD00000001

> <PUBCHEM_MMFF94_ENERGY>
97.4209

> <PUBCHEM_FEATURE_SELFOVERLAP>
61.151

> <PUBCHEM_SHAPE_FINGERPRINT>
10165383 225 17836943204191137617
10369192 42 17842824784879616640
11578080 2 17532345691311558476
11582403 64 16258342508889559184
11720765 8 12832251194300125936
11796584 16 17981609269763476334
12156800 1 15510044658905728811
12236239 1 17459765726133901472
12363563 72 18339644554900946395
12403259 327 15840434872274711475
12553582 1 18261114110024537659
12633257 1 17988936539123993697
12714826 92 18340486673275287544
12788726 201 18335427901611224042
13140716 1 18412825802694112905
13583140 156 15194703723421589187
13911987 19 14708081837679255982
15342816 4 18187355575761577042
15664445 248 17971755737890548228
16752209 62 18188476965873689209
16945 1 18263352603823902192
17349148 13 17773039885396643415
17357779 13 18270382975977252133
17804303 29 18342742913963688179
1813 80 18188203320711802569
20905425 154 18269559334009568446
21452121 199 18266741466370186537
22907989 373 17969212361252247765
23184049 29 18339073899538929841
23419403 2 17397213620429238709
23557571 272 18337663222025914808
23559900 14 18200315403834057988
23598288 3 17243009055979763584
59755656 215 18341046299414684247
602551 16 18339641131938397826
7970288 3 18337392750603286339
90525 40 17679583341932948040

> <PUBCHEM_SHAPE_MULTIPOLES>
500.74
8.54
3.51
1.63
2.33
0.55
-0.05
-7.72
-0.3
-4.57
-0.65
1.69
0.34
0.18

> <PUBCHEM_SHAPE_SELFOVERLAP>
1123.941

> <PUBCHEM_SHAPE_VOLUME>
266

> <PUBCHEM_COORDINATE_TYPE>
2
5
10

$$$$
