91749468
  -OEChem-02172602583D

 37 39  0     1  0  0  0  0  0999 V2000
   -2.7408   -1.6838    0.0501 O   0  0  0  0  0  0  0  0  0  0  0  0
    2.3962   -2.5205    0.3256 O   0  0  0  0  0  0  0  0  0  0  0  0
    0.7562    0.6460    0.1960 C   0  0  1  0  0  0  0  0  0  0  0  0
    0.8496   -0.8072   -0.4142 C   0  0  2  0  0  0  0  0  0  0  0  0
    1.9446    1.4970   -0.3841 C   0  0  2  0  0  0  0  0  0  0  0  0
   -0.6142    1.2987   -0.2264 C   0  0  0  0  0  0  0  0  0  0  0  0
    3.3150    0.8409   -0.1209 C   0  0  0  0  0  0  0  0  0  0  0  0
   -0.2849   -1.7580    0.0415 C   0  0  0  0  0  0  0  0  0  0  0  0
    0.8130    0.5902    1.7459 C   0  0  0  0  0  0  0  0  0  0  0  0
    2.2283   -1.4055   -0.1647 C   0  0  0  0  0  0  0  0  0  0  0  0
    3.3957   -0.5817   -0.6529 C   0  0  0  0  0  0  0  0  0  0  0  0
   -1.7479    0.3373   -0.1252 C   0  0  0  0  0  0  0  0  0  0  0  0
   -1.5628   -1.0218   -0.0233 C   0  0  0  0  0  0  0  0  0  0  0  0
    1.9814    2.9501    0.1065 C   0  0  0  0  0  0  0  0  0  0  0  0
   -3.1483    0.5319   -0.1226 C   0  0  0  0  0  0  0  0  0  0  0  0
   -3.7070   -0.7248   -0.0137 C   0  0  0  0  0  0  0  0  0  0  0  0
   -3.8741    1.8114   -0.2176 C   0  0  0  0  0  0  0  0  0  0  0  0
    0.7664   -0.7158   -1.5087 H   0  0  0  0  0  0  0  0  0  0  0  0
    1.8149    1.5405   -1.4755 H   0  0  0  0  0  0  0  0  0  0  0  0
   -0.5554    1.6363   -1.2693 H   0  0  0  0  0  0  0  0  0  0  0  0
   -0.8250    2.1813    0.3890 H   0  0  0  0  0  0  0  0  0  0  0  0
    3.5336    0.8430    0.9537 H   0  0  0  0  0  0  0  0  0  0  0  0
    4.1061    1.4354   -0.5948 H   0  0  0  0  0  0  0  0  0  0  0  0
   -0.1150   -2.1145    1.0638 H   0  0  0  0  0  0  0  0  0  0  0  0
   -0.3150   -2.6409   -0.6073 H   0  0  0  0  0  0  0  0  0  0  0  0
    0.7505    1.5912    2.1845 H   0  0  0  0  0  0  0  0  0  0  0  0
   -0.0184    0.0177    2.1693 H   0  0  0  0  0  0  0  0  0  0  0  0
    1.7345    0.1253    2.1085 H   0  0  0  0  0  0  0  0  0  0  0  0
    4.3294   -1.0502   -0.3244 H   0  0  0  0  0  0  0  0  0  0  0  0
    3.3823   -0.5904   -1.7483 H   0  0  0  0  0  0  0  0  0  0  0  0
    2.1836    3.0148    1.1798 H   0  0  0  0  0  0  0  0  0  0  0  0
    1.0429    3.4714   -0.1013 H   0  0  0  0  0  0  0  0  0  0  0  0
    2.7757    3.5034   -0.4074 H   0  0  0  0  0  0  0  0  0  0  0  0
   -4.7234   -1.0894    0.0297 H   0  0  0  0  0  0  0  0  0  0  0  0
   -3.6656    2.4363    0.6568 H   0  0  0  0  0  0  0  0  0  0  0  0
   -3.5694    2.3619   -1.1136 H   0  0  0  0  0  0  0  0  0  0  0  0
   -4.9567    1.6566   -0.2710 H   0  0  0  0  0  0  0  0  0  0  0  0
  1 13  1  0  0  0  0
  1 16  1  0  0  0  0
  2 10  2  0  0  0  0
  3  4  1  0  0  0  0
  3  5  1  0  0  0  0
  3  6  1  0  0  0  0
  3  9  1  0  0  0  0
  4  8  1  0  0  0  0
  4 10  1  0  0  0  0
  4 18  1  0  0  0  0
  5  7  1  0  0  0  0
  5 14  1  0  0  0  0
  5 19  1  0  0  0  0
  6 12  1  0  0  0  0
  6 20  1  0  0  0  0
  6 21  1  0  0  0  0
  7 11  1  0  0  0  0
  7 22  1  0  0  0  0
  7 23  1  0  0  0  0
  8 13  1  0  0  0  0
  8 24  1  0  0  0  0
  8 25  1  0  0  0  0
  9 26  1  0  0  0  0
  9 27  1  0  0  0  0
  9 28  1  0  0  0  0
 10 11  1  0  0  0  0
 11 29  1  0  0  0  0
 11 30  1  0  0  0  0
 12 13  2  0  0  0  0
 12 15  1  0  0  0  0
 14 31  1  0  0  0  0
 14 32  1  0  0  0  0
 14 33  1  0  0  0  0
 15 16  2  0  0  0  0
 15 17  1  0  0  0  0
 16 34  1  0  0  0  0
 17 35  1  0  0  0  0
 17 36  1  0  0  0  0
 17 37  1  0  0  0  0
M  END
> <PUBCHEM_COMPOUND_CID>
91749468

> <PUBCHEM_CONFORMER_RMSD>
0.6

> <PUBCHEM_CONFORMER_DIVERSEORDER>
1
2
3

> <PUBCHEM_MMFF94_PARTIAL_CHARGES>
13
1 -0.28
10 0.45
11 0.06
12 -0.18
13 -0.04
15 -0.18
16 -0.01
17 0.18
2 -0.57
34 0.15
4 0.06
6 0.18
8 0.18

> <PUBCHEM_EFFECTIVE_ROTOR_COUNT>
1

> <PUBCHEM_PHARMACOPHORE_FEATURES>
5
1 1 acceptor
1 2 acceptor
5 1 12 13 15 16 rings
6 3 4 5 7 10 11 rings
6 3 4 6 8 12 13 rings

> <PUBCHEM_HEAVY_ATOM_COUNT>
17

> <PUBCHEM_ATOM_DEF_STEREO_COUNT>
2

> <PUBCHEM_ATOM_UDEF_STEREO_COUNT>
1

> <PUBCHEM_BOND_DEF_STEREO_COUNT>
0

> <PUBCHEM_BOND_UDEF_STEREO_COUNT>
0

> <PUBCHEM_ISOTOPIC_ATOM_COUNT>
0

> <PUBCHEM_COMPONENT_COUNT>
1

> <PUBCHEM_CACTVS_TAUTO_COUNT>
3

> <PUBCHEM_CONFORMER_ID>
0577FC5C00000001

> <PUBCHEM_MMFF94_ENERGY>
36.8317

> <PUBCHEM_FEATURE_SELFOVERLAP>
25.481

> <PUBCHEM_SHAPE_FINGERPRINT>
10411042 1 16752968634294906111
10608611 8 18410009974610438493
10863032 1 18410294696402804015
10967382 1 18338235938344329844
11471102 20 18411134740429344972
116883 192 17766564547323191990
12491281 212 18334869336925010745
12654215 9 18413388718171302780
12932764 1 17560796701614955309
13134695 92 17346308259392905048
13140716 1 18410293575722249643
13571099 22 18200877279328146110
13897977 150 18410291428038232357
14648413 74 18408604785659380633
15196674 1 18410576175658690270
15219456 202 18410856581304582125
15375462 6 18337110189019954957
15442244 35 18267022756388542201
15536298 74 18343022202896971110
16945 1 18410577305430248258
18186145 218 18272663336949058421
20510252 161 18053387879435856889
20511035 2 18130211727182878663
20645477 70 18272370892947725127
21267235 1 18410866459629584463
21501502 16 18411135835904617535
221490 88 18337401538121392522
22854114 111 18340208595385553796
2334 1 18411136982681854631
23402539 116 18271238331847397022
23419403 2 14608318710341011094
23463225 33 18410012108976861687
23559900 14 18343019944345787422
25 1 18334859381106266702
2748010 2 18410011074158716783
2871803 45 18266454502546662655
335352 9 18121781629941133519
34934 24 18339355275905173526
350125 39 18411426133044776057
474 4 17169278232967298636
495365 180 17631148862707923617
5104073 3 18409731754965439080
528886 8 18409728465052150984
53812653 166 18341890813985033416
7364860 26 18341049709154506284
74978 22 18410853240052101889
7832392 63 18410855430163877485
81228 2 17552650149102424042
93112 12 18410575080690073069
9709674 26 18338803410993785631

> <PUBCHEM_SHAPE_MULTIPOLES>
338.11
6.16
2.55
0.85
3.2
0.43
-0.3
0.56
0.79
-1
-0.03
-0.26
0.11
0.18

> <PUBCHEM_SHAPE_SELFOVERLAP>
726.079

> <PUBCHEM_SHAPE_VOLUME>
187.1

> <PUBCHEM_COORDINATE_TYPE>
2
5
10

$$$$
