101737401
  -OEChem-02172602513D

 68 67  0     0  0  0  0  0  0999 V2000
   -3.1287    0.8881   -1.1416 O   0  0  0  0  0  0  0  0  0  0  0  0
   -2.4147    0.0990   -0.1637 C   0  0  0  0  0  0  0  0  0  0  0  0
   -0.8824    0.2248   -0.4353 C   0  0  0  0  0  0  0  0  0  0  0  0
   -2.9424   -1.3530   -0.3545 C   0  0  0  0  0  0  0  0  0  0  0  0
   -2.8983    0.6413    1.2155 C   0  0  0  0  0  0  0  0  0  0  0  0
    0.1004   -0.4448    0.2427 C   0  0  0  0  0  0  0  0  0  0  0  0
   -0.5173    1.1266   -1.6311 C   0  0  0  0  0  0  0  0  0  0  0  0
   -2.7413   -1.9189   -1.7675 C   0  0  0  0  0  0  0  0  0  0  0  0
   -2.3221    2.0013    1.6213 C   0  0  0  0  0  0  0  0  0  0  0  0
   -0.0797   -1.2409    1.5324 C   0  0  0  0  0  0  0  0  0  0  0  0
    1.5276   -0.3356   -0.1334 C   0  0  0  0  0  0  0  0  0  0  0  0
   -0.8179    2.6143   -1.4229 C   0  0  0  0  0  0  0  0  0  0  0  0
    2.3929   -1.5762    0.0074 C   0  0  0  0  0  0  0  0  0  0  0  0
    0.6724   -0.7014    2.7555 C   0  0  0  0  0  0  0  0  0  0  0  0
   -3.2685   -3.3425   -1.8712 C   0  0  0  0  0  0  0  0  0  0  0  0
   -2.9689    2.5174    2.8991 C   0  0  0  0  0  0  0  0  0  0  0  0
    2.0118    0.8702   -0.5015 C   0  0  0  0  0  0  0  0  0  0  0  0
   -0.4228    3.4335   -2.6435 C   0  0  0  0  0  0  0  0  0  0  0  0
    1.9918   -2.7671   -0.8746 C   0  0  0  0  0  0  0  0  0  0  0  0
    3.4263    1.2049   -0.8843 C   0  0  0  0  0  0  0  0  0  0  0  0
    0.3956   -1.5418    3.9945 C   0  0  0  0  0  0  0  0  0  0  0  0
    4.2438    1.6125    0.3416 C   0  0  0  0  0  0  0  0  0  0  0  0
    2.9579   -3.9382   -0.7544 C   0  0  0  0  0  0  0  0  0  0  0  0
    5.6845    1.9266   -0.0304 C   0  0  0  0  0  0  0  0  0  0  0  0
   -4.0223   -1.3644   -0.1505 H   0  0  0  0  0  0  0  0  0  0  0  0
   -2.4917   -2.0372    0.3706 H   0  0  0  0  0  0  0  0  0  0  0  0
   -2.6952   -0.0738    2.0176 H   0  0  0  0  0  0  0  0  0  0  0  0
   -3.9929    0.7393    1.1866 H   0  0  0  0  0  0  0  0  0  0  0  0
   -1.1639    0.7895   -2.4578 H   0  0  0  0  0  0  0  0  0  0  0  0
    0.4493    0.9563   -2.1050 H   0  0  0  0  0  0  0  0  0  0  0  0
   -3.2576   -1.2949   -2.5053 H   0  0  0  0  0  0  0  0  0  0  0  0
   -1.6777   -1.9220   -2.0291 H   0  0  0  0  0  0  0  0  0  0  0  0
   -1.2396    1.9371    1.7684 H   0  0  0  0  0  0  0  0  0  0  0  0
   -2.5131    2.7383    0.8373 H   0  0  0  0  0  0  0  0  0  0  0  0
   -1.1294   -1.3058    1.8088 H   0  0  0  0  0  0  0  0  0  0  0  0
    0.2014   -2.2871    1.3622 H   0  0  0  0  0  0  0  0  0  0  0  0
   -0.2913    3.0052   -0.5463 H   0  0  0  0  0  0  0  0  0  0  0  0
   -1.8794    2.8021   -1.2541 H   0  0  0  0  0  0  0  0  0  0  0  0
   -4.0827    0.7543   -1.0099 H   0  0  0  0  0  0  0  0  0  0  0  0
    3.4363   -1.3384   -0.2267 H   0  0  0  0  0  0  0  0  0  0  0  0
    2.4358   -1.9144    1.0469 H   0  0  0  0  0  0  0  0  0  0  0  0
    1.7536   -0.6565    2.6010 H   0  0  0  0  0  0  0  0  0  0  0  0
    0.3471    0.3275    2.9527 H   0  0  0  0  0  0  0  0  0  0  0  0
   -4.3394   -3.3818   -1.6480 H   0  0  0  0  0  0  0  0  0  0  0  0
   -3.1182   -3.7290   -2.8841 H   0  0  0  0  0  0  0  0  0  0  0  0
   -2.7465   -4.0058   -1.1741 H   0  0  0  0  0  0  0  0  0  0  0  0
   -2.5476    3.4906    3.1701 H   0  0  0  0  0  0  0  0  0  0  0  0
   -2.7945    1.8279    3.7313 H   0  0  0  0  0  0  0  0  0  0  0  0
   -4.0495    2.6388    2.7727 H   0  0  0  0  0  0  0  0  0  0  0  0
    1.4207    1.7679   -0.3715 H   0  0  0  0  0  0  0  0  0  0  0  0
    0.6499    3.3454   -2.8436 H   0  0  0  0  0  0  0  0  0  0  0  0
   -0.6507    4.4916   -2.4803 H   0  0  0  0  0  0  0  0  0  0  0  0
   -0.9683    3.1016   -3.5327 H   0  0  0  0  0  0  0  0  0  0  0  0
    0.9844   -3.1149   -0.6218 H   0  0  0  0  0  0  0  0  0  0  0  0
    1.9590   -2.4458   -1.9230 H   0  0  0  0  0  0  0  0  0  0  0  0
    3.4008    2.0311   -1.6060 H   0  0  0  0  0  0  0  0  0  0  0  0
    3.9028    0.3704   -1.4098 H   0  0  0  0  0  0  0  0  0  0  0  0
   -0.6737   -1.5565    4.2289 H   0  0  0  0  0  0  0  0  0  0  0  0
    0.7318   -2.5734    3.8500 H   0  0  0  0  0  0  0  0  0  0  0  0
    0.9257   -1.1287    4.8584 H   0  0  0  0  0  0  0  0  0  0  0  0
    3.7951    2.4937    0.8163 H   0  0  0  0  0  0  0  0  0  0  0  0
    4.2379    0.8086    1.0877 H   0  0  0  0  0  0  0  0  0  0  0  0
    3.9693   -3.6436   -1.0516 H   0  0  0  0  0  0  0  0  0  0  0  0
    2.6389   -4.7610   -1.4018 H   0  0  0  0  0  0  0  0  0  0  0  0
    2.9951   -4.3086    0.2749 H   0  0  0  0  0  0  0  0  0  0  0  0
    6.1745    1.0531   -0.4725 H   0  0  0  0  0  0  0  0  0  0  0  0
    5.7329    2.7497   -0.7505 H   0  0  0  0  0  0  0  0  0  0  0  0
    6.2506    2.2195    0.8593 H   0  0  0  0  0  0  0  0  0  0  0  0
  1  2  1  0  0  0  0
  1 39  1  0  0  0  0
  2  3  1  0  0  0  0
  2  4  1  0  0  0  0
  2  5  1  0  0  0  0
  3  6  2  0  0  0  0
  3  7  1  0  0  0  0
  4  8  1  0  0  0  0
  4 25  1  0  0  0  0
  4 26  1  0  0  0  0
  5  9  1  0  0  0  0
  5 27  1  0  0  0  0
  5 28  1  0  0  0  0
  6 10  1  0  0  0  0
  6 11  1  0  0  0  0
  7 12  1  0  0  0  0
  7 29  1  0  0  0  0
  7 30  1  0  0  0  0
  8 15  1  0  0  0  0
  8 31  1  0  0  0  0
  8 32  1  0  0  0  0
  9 16  1  0  0  0  0
  9 33  1  0  0  0  0
  9 34  1  0  0  0  0
 10 14  1  0  0  0  0
 10 35  1  0  0  0  0
 10 36  1  0  0  0  0
 11 13  1  0  0  0  0
 11 17  2  0  0  0  0
 12 18  1  0  0  0  0
 12 37  1  0  0  0  0
 12 38  1  0  0  0  0
 13 19  1  0  0  0  0
 13 40  1  0  0  0  0
 13 41  1  0  0  0  0
 14 21  1  0  0  0  0
 14 42  1  0  0  0  0
 14 43  1  0  0  0  0
 15 44  1  0  0  0  0
 15 45  1  0  0  0  0
 15 46  1  0  0  0  0
 16 47  1  0  0  0  0
 16 48  1  0  0  0  0
 16 49  1  0  0  0  0
 17 20  1  0  0  0  0
 17 50  1  0  0  0  0
 18 51  1  0  0  0  0
 18 52  1  0  0  0  0
 18 53  1  0  0  0  0
 19 23  1  0  0  0  0
 19 54  1  0  0  0  0
 19 55  1  0  0  0  0
 20 22  1  0  0  0  0
 20 56  1  0  0  0  0
 20 57  1  0  0  0  0
 21 58  1  0  0  0  0
 21 59  1  0  0  0  0
 21 60  1  0  0  0  0
 22 24  1  0  0  0  0
 22 61  1  0  0  0  0
 22 62  1  0  0  0  0
 23 63  1  0  0  0  0
 23 64  1  0  0  0  0
 23 65  1  0  0  0  0
 24 66  1  0  0  0  0
 24 67  1  0  0  0  0
 24 68  1  0  0  0  0
M  END
> <PUBCHEM_COMPOUND_CID>
101737401

> <PUBCHEM_CONFORMER_RMSD>
1.2

> <PUBCHEM_CONFORMER_DIVERSEORDER>
1
15
13
14
17
11
18
19
12
16
2
10
3
7
9
5
6
8
4

> <PUBCHEM_MMFF94_PARTIAL_CHARGES>
12
1 -0.68
10 0.14
11 -0.14
13 0.14
17 -0.29
2 0.42
20 0.14
3 -0.28
39 0.4
50 0.15
6 -0.14
7 0.14

> <PUBCHEM_EFFECTIVE_ROTOR_COUNT>
14

> <PUBCHEM_PHARMACOPHORE_FEATURES>
10
1 1 acceptor
1 1 donor
1 15 hydrophobe
1 16 hydrophobe
1 18 hydrophobe
1 21 hydrophobe
1 23 hydrophobe
1 24 hydrophobe
3 11 13 19 hydrophobe
3 6 10 14 hydrophobe

> <PUBCHEM_HEAVY_ATOM_COUNT>
24

> <PUBCHEM_ATOM_DEF_STEREO_COUNT>
0

> <PUBCHEM_ATOM_UDEF_STEREO_COUNT>
0

> <PUBCHEM_BOND_DEF_STEREO_COUNT>
2

> <PUBCHEM_BOND_UDEF_STEREO_COUNT>
0

> <PUBCHEM_ISOTOPIC_ATOM_COUNT>
0

> <PUBCHEM_COMPONENT_COUNT>
1

> <PUBCHEM_CACTVS_TAUTO_COUNT>
1

> <PUBCHEM_CONFORMER_ID>
061063B900000001

> <PUBCHEM_MMFF94_ENERGY>
48.5523

> <PUBCHEM_FEATURE_SELFOVERLAP>
50.786

> <PUBCHEM_SHAPE_FINGERPRINT>
13965767 371 17762371053167938929
15219462 58 17273386479106125915
16945 1 17917712400764603591
19930381 70 17197123480673104625
20600515 1 17117436380060945110
23402539 116 17968928812138590164
23419403 2 17322684427657710113
2748010 2 17751361681682181476
34934 24 18187914080608554541
57527585 103 17387997479768889298
59554788 62 18335144180366975012
70251023 43 18044372717364405423
9981440 41 18341057419079674424

> <PUBCHEM_SHAPE_MULTIPOLES>
488.04
7.01
4.27
3.16
6.93
1.71
-3.11
-1.68
0.81
0.33
2.18
-2.06
-0.38
-1.92

> <PUBCHEM_SHAPE_SELFOVERLAP>
918.539

> <PUBCHEM_SHAPE_VOLUME>
304.7

> <PUBCHEM_COORDINATE_TYPE>
2
5
10

$$$$
