101297607
  -OEChem-02172602533D

 82 86  0     1  0  0  0  0  0999 V2000
   -3.9460   -0.0746   -0.0134 O   0  0  0  0  0  0  0  0  0  0  0  0
    0.9394   -3.0225   -0.4651 O   0  0  0  0  0  0  0  0  0  0  0  0
    7.1281   -0.1317   -1.3840 O   0  0  0  0  0  0  0  0  0  0  0  0
   -6.3767   -1.5140   -0.4749 O   0  0  0  0  0  0  0  0  0  0  0  0
    0.1423    0.9492    0.5428 C   0  0  2  0  0  0  0  0  0  0  0  0
   -0.9098   -0.0367   -0.0820 C   0  0  1  0  0  0  0  0  0  0  0  0
    1.0984    0.1383    1.4719 C   0  0  1  0  0  0  0  0  0  0  0  0
   -1.8936    0.9571   -0.7481 C   0  0  2  0  0  0  0  0  0  0  0  0
    1.7911   -1.0944    0.7723 C   0  0  2  0  0  0  0  0  0  0  0  0
   -0.8008    1.9460    1.2540 C   0  0  0  0  0  0  0  0  0  0  0  0
   -2.0126    2.0903    0.3030 C   0  0  0  0  0  0  0  0  0  0  0  0
   -0.1846   -0.9985   -1.0179 C   0  0  0  0  0  0  0  0  0  0  0  0
   -3.2531    0.4159   -1.1796 C   0  0  2  0  0  0  0  0  0  0  0  0
    3.0931   -0.6972   -0.0341 C   0  0  1  0  0  0  0  0  0  0  0  0
    0.8357   -1.8145   -0.2307 C   0  0  0  0  0  0  0  0  0  0  0  0
    2.1195    0.9830    2.2544 C   0  0  0  0  0  0  0  0  0  0  0  0
    0.9322    1.8016   -0.4972 C   0  0  0  0  0  0  0  0  0  0  0  0
   -1.6997   -0.9032    0.9552 C   0  0  0  0  0  0  0  0  0  0  0  0
    3.8831    0.4960    0.5142 C   0  0  0  0  0  0  0  0  0  0  0  0
    2.1114   -2.1126    1.9051 C   0  0  0  0  0  0  0  0  0  0  0  0
   -4.1402    1.5089   -1.7776 C   0  0  0  0  0  0  0  0  0  0  0  0
    4.0480   -1.8981   -0.2378 C   0  0  0  0  0  0  0  0  0  0  0  0
    3.4302    1.1953    1.5710 C   0  0  0  0  0  0  0  0  0  0  0  0
    5.1750    0.8790   -0.2546 C   0  0  0  0  0  0  0  0  0  0  0  0
   -3.0735   -0.7627   -2.1392 C   0  0  0  0  0  0  0  0  0  0  0  0
   -5.5226    1.0890   -1.3380 C   0  0  0  0  0  0  0  0  0  0  0  0
    5.2437   -1.5461   -1.1088 C   0  0  0  0  0  0  0  0  0  0  0  0
   -5.2449    0.5373    0.0484 C   0  0  1  0  0  0  0  0  0  0  0  0
    6.0373   -0.3933   -0.5014 C   0  0  1  0  0  0  0  0  0  0  0  0
    4.7689    1.5474   -1.5911 C   0  0  0  0  0  0  0  0  0  0  0  0
    6.0586    1.9147    0.4907 C   0  0  0  0  0  0  0  0  0  0  0  0
   -6.2695   -0.4804    0.5102 C   0  0  0  0  0  0  0  0  0  0  0  0
   -5.8539   -1.1264    1.8360 C   0  0  0  0  0  0  0  0  0  0  0  0
   -7.6548    0.1579    0.6462 C   0  0  0  0  0  0  0  0  0  0  0  0
    0.4492   -0.2540    2.2660 H   0  0  0  0  0  0  0  0  0  0  0  0
   -1.4241    1.3704   -1.6510 H   0  0  0  0  0  0  0  0  0  0  0  0
   -0.3344    2.9182    1.4481 H   0  0  0  0  0  0  0  0  0  0  0  0
   -1.1330    1.5581    2.2240 H   0  0  0  0  0  0  0  0  0  0  0  0
   -2.9317    2.0575    0.8943 H   0  0  0  0  0  0  0  0  0  0  0  0
   -1.9831    3.0673   -0.1935 H   0  0  0  0  0  0  0  0  0  0  0  0
    0.3288   -0.4924   -1.8398 H   0  0  0  0  0  0  0  0  0  0  0  0
   -0.8520   -1.7298   -1.4736 H   0  0  0  0  0  0  0  0  0  0  0  0
    2.7685   -0.4160   -1.0426 H   0  0  0  0  0  0  0  0  0  0  0  0
    2.3268    0.5053    3.2206 H   0  0  0  0  0  0  0  0  0  0  0  0
    1.6853    1.9595    2.4979 H   0  0  0  0  0  0  0  0  0  0  0  0
    1.4986    1.2041   -1.2081 H   0  0  0  0  0  0  0  0  0  0  0  0
    1.6273    2.4851    0.0004 H   0  0  0  0  0  0  0  0  0  0  0  0
    0.2878    2.4520   -1.0969 H   0  0  0  0  0  0  0  0  0  0  0  0
   -2.3436   -1.6481    0.4801 H   0  0  0  0  0  0  0  0  0  0  0  0
   -1.0326   -1.5094    1.5756 H   0  0  0  0  0  0  0  0  0  0  0  0
   -2.2866   -0.3091    1.6617 H   0  0  0  0  0  0  0  0  0  0  0  0
    2.8739   -1.7310    2.5917 H   0  0  0  0  0  0  0  0  0  0  0  0
    2.4633   -3.0757    1.5205 H   0  0  0  0  0  0  0  0  0  0  0  0
    1.2142   -2.3406    2.4929 H   0  0  0  0  0  0  0  0  0  0  0  0
   -4.0474    1.5926   -2.8652 H   0  0  0  0  0  0  0  0  0  0  0  0
   -3.9300    2.4996   -1.3616 H   0  0  0  0  0  0  0  0  0  0  0  0
    3.5169   -2.7335   -0.7065 H   0  0  0  0  0  0  0  0  0  0  0  0
    4.4305   -2.2558    0.7260 H   0  0  0  0  0  0  0  0  0  0  0  0
    3.9975    2.0318    1.9658 H   0  0  0  0  0  0  0  0  0  0  0  0
   -2.8725   -1.7056   -1.6272 H   0  0  0  0  0  0  0  0  0  0  0  0
   -2.3158   -0.5632   -2.9034 H   0  0  0  0  0  0  0  0  0  0  0  0
   -4.0096   -0.9566   -2.6780 H   0  0  0  0  0  0  0  0  0  0  0  0
   -6.2313    1.9225   -1.3279 H   0  0  0  0  0  0  0  0  0  0  0  0
   -5.9084    0.3300   -2.0268 H   0  0  0  0  0  0  0  0  0  0  0  0
    5.8924   -2.4253   -1.2116 H   0  0  0  0  0  0  0  0  0  0  0  0
    4.9211   -1.3051   -2.1288 H   0  0  0  0  0  0  0  0  0  0  0  0
   -5.1764    1.3607    0.7706 H   0  0  0  0  0  0  0  0  0  0  0  0
    6.4681   -0.7237    0.4534 H   0  0  0  0  0  0  0  0  0  0  0  0
    5.6474    1.8819   -2.1547 H   0  0  0  0  0  0  0  0  0  0  0  0
    4.1425    2.4301   -1.4135 H   0  0  0  0  0  0  0  0  0  0  0  0
    4.2029    0.8760   -2.2438 H   0  0  0  0  0  0  0  0  0  0  0  0
    6.9829    2.1193   -0.0623 H   0  0  0  0  0  0  0  0  0  0  0  0
    6.3482    1.5502    1.4831 H   0  0  0  0  0  0  0  0  0  0  0  0
    5.5480    2.8769    0.6122 H   0  0  0  0  0  0  0  0  0  0  0  0
    7.6625   -0.9420   -1.4423 H   0  0  0  0  0  0  0  0  0  0  0  0
   -5.7159   -0.3771    2.6223 H   0  0  0  0  0  0  0  0  0  0  0  0
   -6.6106   -1.8439    2.1741 H   0  0  0  0  0  0  0  0  0  0  0  0
   -4.9251   -1.6974    1.7283 H   0  0  0  0  0  0  0  0  0  0  0  0
   -8.0287    0.5179   -0.3185 H   0  0  0  0  0  0  0  0  0  0  0  0
   -8.3893   -0.5764    0.9974 H   0  0  0  0  0  0  0  0  0  0  0  0
   -7.6444    0.9946    1.3524 H   0  0  0  0  0  0  0  0  0  0  0  0
   -7.0293   -2.1631   -0.1611 H   0  0  0  0  0  0  0  0  0  0  0  0
  1 13  1  0  0  0  0
  1 28  1  0  0  0  0
  2 15  2  0  0  0  0
  3 29  1  0  0  0  0
  3 75  1  0  0  0  0
  4 32  1  0  0  0  0
  4 82  1  0  0  0  0
  5  6  1  0  0  0  0
  5  7  1  0  0  0  0
  5 10  1  0  0  0  0
  5 17  1  0  0  0  0
  6  8  1  0  0  0  0
  6 12  1  0  0  0  0
  6 18  1  0  0  0  0
  7  9  1  0  0  0  0
  7 16  1  0  0  0  0
  7 35  1  0  0  0  0
  8 11  1  0  0  0  0
  8 13  1  0  0  0  0
  8 36  1  0  0  0  0
  9 14  1  0  0  0  0
  9 15  1  0  0  0  0
  9 20  1  0  0  0  0
 10 11  1  0  0  0  0
 10 37  1  0  0  0  0
 10 38  1  0  0  0  0
 11 39  1  0  0  0  0
 11 40  1  0  0  0  0
 12 15  1  0  0  0  0
 12 41  1  0  0  0  0
 12 42  1  0  0  0  0
 13 21  1  0  0  0  0
 13 25  1  0  0  0  0
 14 19  1  0  0  0  0
 14 22  1  0  0  0  0
 14 43  1  0  0  0  0
 16 23  1  0  0  0  0
 16 44  1  0  0  0  0
 16 45  1  0  0  0  0
 17 46  1  0  0  0  0
 17 47  1  0  0  0  0
 17 48  1  0  0  0  0
 18 49  1  0  0  0  0
 18 50  1  0  0  0  0
 18 51  1  0  0  0  0
 19 23  2  0  0  0  0
 19 24  1  0  0  0  0
 20 52  1  0  0  0  0
 20 53  1  0  0  0  0
 20 54  1  0  0  0  0
 21 26  1  0  0  0  0
 21 55  1  0  0  0  0
 21 56  1  0  0  0  0
 22 27  1  0  0  0  0
 22 57  1  0  0  0  0
 22 58  1  0  0  0  0
 23 59  1  0  0  0  0
 24 29  1  0  0  0  0
 24 30  1  0  0  0  0
 24 31  1  0  0  0  0
 25 60  1  0  0  0  0
 25 61  1  0  0  0  0
 25 62  1  0  0  0  0
 26 28  1  0  0  0  0
 26 63  1  0  0  0  0
 26 64  1  0  0  0  0
 27 29  1  0  0  0  0
 27 65  1  0  0  0  0
 27 66  1  0  0  0  0
 28 32  1  0  0  0  0
 28 67  1  0  0  0  0
 29 68  1  0  0  0  0
 30 69  1  0  0  0  0
 30 70  1  0  0  0  0
 30 71  1  0  0  0  0
 31 72  1  0  0  0  0
 31 73  1  0  0  0  0
 31 74  1  0  0  0  0
 32 33  1  0  0  0  0
 32 34  1  0  0  0  0
 33 76  1  0  0  0  0
 33 77  1  0  0  0  0
 33 78  1  0  0  0  0
 34 79  1  0  0  0  0
 34 80  1  0  0  0  0
 34 81  1  0  0  0  0
M  END
> <PUBCHEM_COMPOUND_CID>
101297607

> <PUBCHEM_CONFORMER_RMSD>
0.8

> <PUBCHEM_CONFORMER_DIVERSEORDER>
1
3
2

> <PUBCHEM_MMFF94_PARTIAL_CHARGES>
19
1 -0.56
12 0.06
13 0.28
14 0.14
15 0.45
16 0.14
19 -0.28
2 -0.57
23 -0.29
24 0.14
28 0.28
29 0.28
3 -0.68
32 0.28
4 -0.68
59 0.15
75 0.4
82 0.4
9 0.06

> <PUBCHEM_EFFECTIVE_ROTOR_COUNT>
4.8

> <PUBCHEM_PHARMACOPHORE_FEATURES>
13
1 1 acceptor
1 2 acceptor
1 3 acceptor
1 3 donor
1 4 acceptor
1 4 donor
3 24 30 31 hydrophobe
3 32 33 34 hydrophobe
5 1 13 21 26 28 rings
5 5 6 8 10 11 rings
6 14 19 22 24 27 29 rings
6 5 6 7 9 12 15 rings
6 7 9 14 16 19 23 rings

> <PUBCHEM_HEAVY_ATOM_COUNT>
34

> <PUBCHEM_ATOM_DEF_STEREO_COUNT>
8

> <PUBCHEM_ATOM_UDEF_STEREO_COUNT>
1

> <PUBCHEM_BOND_DEF_STEREO_COUNT>
0

> <PUBCHEM_BOND_UDEF_STEREO_COUNT>
0

> <PUBCHEM_ISOTOPIC_ATOM_COUNT>
0

> <PUBCHEM_COMPONENT_COUNT>
1

> <PUBCHEM_CACTVS_TAUTO_COUNT>
2

> <PUBCHEM_CONFORMER_ID>
0609ADC700000001

> <PUBCHEM_MMFF94_ENERGY>
151.9296

> <PUBCHEM_FEATURE_SELFOVERLAP>
66.088

> <PUBCHEM_SHAPE_FINGERPRINT>
10190108 129 18129678434495601553
10674148 151 16702308949260514024
10930396 42 8213582104842656822
11488393 25 18057051211266448654
11578080 2 17826789235962428133
11796584 16 13470401193146759444
11963148 33 18260823839008429515
12166972 35 18040158409475298500
12236239 1 16415474974229659961
12553582 1 17987780952651009849
12730499 353 18410292506444574610
12788726 201 18129657496203180681
13782708 43 18336267821485178810
13914758 101 9367356929072470607
14790565 3 18201441341747065225
14840074 17 18060136540162707645
14856354 85 17989492939927430671
14955137 171 18342459287604540289
15142383 8 13183023995078785722
15183329 4 16487254369997749533
15352257 5 18343302591432143943
15475509 8 16271942505298655640
15537594 2 18201995543168258487
15788980 27 10591754411883369809
15799311 1 17561369495459762191
15840311 113 17561079250761453601
17980427 23 14345802629881792687
1813 80 12175621802716254282
18365409 1 15213881435371857291
18608769 82 18410854407956451195
19319366 153 18341604889639385174
19377110 9 15213016038158479121
20105231 36 18272378572254713919
20567600 234 13695589962055125796
20832881 197 17203607103494597216
21033650 10 15793705378827288365
21344244 181 17917440813288548886
21521721 280 18343867744650482088
21781051 124 18335424582187502298
221357 26 17989204820393842992
22149856 69 18337405872286564473
23516275 137 18058192569177645419
23522609 53 16844465966592972105
23559900 14 17702930552684745208
23569914 152 16906356059076499453
23569943 247 17488744458790670879
24771750 20 17901958769951050396
3004659 81 18060136510609450948
3178227 256 18201720634970118850
34797466 226 17967538977474004325
350125 39 18060421274761327937
4066623 53 13221294228304413332
4112364 45 17604979490526777560
4258327 124 17386870463813608572
4325135 7 17458064872103263221
4340502 62 17458059370028890690
437795 51 18341333374311213755
44317340 157 18412261744586063268
4461854 278 18198075866411797199
474113 269 9438864728341728312
484989 97 18340496633663753542
5104073 3 18263632975452882865
53794403 172 17605004787351200588
5381727 24 16877662384126899440
54039377 194 17845378752547891094
59755656 215 18412548708103963342
6004065 56 12829499172646694319
6081469 158 10735889365773346400
6086070 43 10591755438601904779
6669772 16 18057593472984604928
8509985 295 10447923988328162298

> <PUBCHEM_SHAPE_MULTIPOLES>
676.23
16.87
2.26
1.82
9.42
0.47
0.18
-0.33
-2.53
-1.23
0.04
0.14
-0.07
1.07

> <PUBCHEM_SHAPE_SELFOVERLAP>
1449.116

> <PUBCHEM_SHAPE_VOLUME>
372.9

> <PUBCHEM_COORDINATE_TYPE>
2
5
10

$$$$
