12921517
  -OEChem-02172602533D

 57 58  0     1  0  0  0  0  0999 V2000
   -4.0302    1.2986   -1.8230 Br  0  0  0  0  0  0  0  0  0  0  0  0
    1.5832   -1.9222   -1.9095 Br  0  0  0  0  0  0  0  0  0  0  0  0
   -0.4025    0.6768   -0.9896 P   0  0  0  0  0  0  0  0  0  0  0  0
    0.8600    1.6877   -1.0811 O   0  0  0  0  0  0  0  0  0  0  0  0
   -0.8081    0.1121   -2.3237 O   0  0  0  0  0  0  0  0  0  0  0  0
   -1.6642    2.9122   -0.9075 O   0  0  0  0  0  0  0  0  0  0  0  0
   -0.9091   -1.5707    0.0701 O   0  0  0  0  0  0  0  0  0  0  0  0
    2.5622    3.1437   -0.2467 C   0  0  0  0  0  0  0  0  0  0  0  0
    3.2439    3.7858    0.9723 C   0  0  0  0  0  0  0  0  0  0  0  0
   -1.6685    1.6702   -0.2142 C   0  0  1  0  0  0  0  0  0  0  0  0
    0.1300   -0.5989    0.1524 C   0  0  1  0  0  0  0  0  0  0  0  0
    1.3932    2.2342    0.1122 C   0  0  0  0  0  0  0  0  0  0  0  0
    4.3720    4.7384    0.5742 C   0  0  0  0  0  0  0  0  0  0  0  0
    3.7901    2.6953    1.8968 C   0  0  0  0  0  0  0  0  0  0  0  0
   -3.0237    1.0091   -0.2585 C   0  0  0  0  0  0  0  0  0  0  0  0
    1.4836   -1.1790   -0.1822 C   0  0  0  0  0  0  0  0  0  0  0  0
   -3.5348    0.2269    0.7110 C   0  0  0  0  0  0  0  0  0  0  0  0
    2.5154   -1.2026    0.6840 C   0  0  0  0  0  0  0  0  0  0  0  0
   -4.8525   -0.4132    0.6627 C   0  0  0  0  0  0  0  0  0  0  0  0
    3.8528   -1.7466    0.4240 C   0  0  0  0  0  0  0  0  0  0  0  0
   -5.9712    0.2552    1.1605 C   0  0  0  0  0  0  0  0  0  0  0  0
    4.1437   -3.0703    0.7544 C   0  0  0  0  0  0  0  0  0  0  0  0
   -4.9880   -1.6907    0.1191 C   0  0  0  0  0  0  0  0  0  0  0  0
    4.8337   -0.9404   -0.1538 C   0  0  0  0  0  0  0  0  0  0  0  0
   -7.2252   -0.3540    1.1148 C   0  0  0  0  0  0  0  0  0  0  0  0
    5.4153   -3.5876    0.5074 C   0  0  0  0  0  0  0  0  0  0  0  0
   -6.2421   -2.2997    0.0735 C   0  0  0  0  0  0  0  0  0  0  0  0
    6.1053   -1.4578   -0.4008 C   0  0  0  0  0  0  0  0  0  0  0  0
   -7.3606   -1.6313    0.5714 C   0  0  0  0  0  0  0  0  0  0  0  0
    6.3960   -2.7815   -0.0701 C   0  0  0  0  0  0  0  0  0  0  0  0
    3.2952    2.5728   -0.8321 H   0  0  0  0  0  0  0  0  0  0  0  0
    2.2024    3.9305   -0.9224 H   0  0  0  0  0  0  0  0  0  0  0  0
    2.4968    4.3663    1.5283 H   0  0  0  0  0  0  0  0  0  0  0  0
   -1.3974    1.8752    0.8267 H   0  0  0  0  0  0  0  0  0  0  0  0
    0.1169   -0.2008    1.1726 H   0  0  0  0  0  0  0  0  0  0  0  0
    1.7166    1.4339    0.7720 H   0  0  0  0  0  0  0  0  0  0  0  0
    0.6298    2.8216    0.6290 H   0  0  0  0  0  0  0  0  0  0  0  0
    5.1634    4.2101    0.0317 H   0  0  0  0  0  0  0  0  0  0  0  0
    4.8187    5.2073    1.4573 H   0  0  0  0  0  0  0  0  0  0  0  0
    3.9925    5.5359   -0.0729 H   0  0  0  0  0  0  0  0  0  0  0  0
    4.3756    3.1389    2.7102 H   0  0  0  0  0  0  0  0  0  0  0  0
    2.9881    2.1211    2.3694 H   0  0  0  0  0  0  0  0  0  0  0  0
    4.4438    2.0021    1.3572 H   0  0  0  0  0  0  0  0  0  0  0  0
   -2.3658    3.4660   -0.5243 H   0  0  0  0  0  0  0  0  0  0  0  0
   -0.6729   -2.3032    0.6645 H   0  0  0  0  0  0  0  0  0  0  0  0
   -2.9618    0.0411    1.6157 H   0  0  0  0  0  0  0  0  0  0  0  0
    2.3910   -0.7814    1.6791 H   0  0  0  0  0  0  0  0  0  0  0  0
   -5.8816    1.2510    1.5878 H   0  0  0  0  0  0  0  0  0  0  0  0
    3.3897   -3.7108    1.2054 H   0  0  0  0  0  0  0  0  0  0  0  0
   -4.1253   -2.2246   -0.2722 H   0  0  0  0  0  0  0  0  0  0  0  0
    4.6218    0.0926   -0.4187 H   0  0  0  0  0  0  0  0  0  0  0  0
   -8.0962    0.1664    1.5024 H   0  0  0  0  0  0  0  0  0  0  0  0
    5.6418   -4.6181    0.7647 H   0  0  0  0  0  0  0  0  0  0  0  0
   -6.3478   -3.2943   -0.3496 H   0  0  0  0  0  0  0  0  0  0  0  0
    6.8689   -0.8304   -0.8510 H   0  0  0  0  0  0  0  0  0  0  0  0
   -8.3370   -2.1056    0.5357 H   0  0  0  0  0  0  0  0  0  0  0  0
    7.3861   -3.1843   -0.2626 H   0  0  0  0  0  0  0  0  0  0  0  0
  1 15  1  0  0  0  0
  2 16  1  0  0  0  0
  3  4  1  0  0  0  0
  3  5  2  0  0  0  0
  3 10  1  0  0  0  0
  3 11  1  0  0  0  0
  4 12  1  0  0  0  0
  6 10  1  0  0  0  0
  6 44  1  0  0  0  0
  7 11  1  0  0  0  0
  7 45  1  0  0  0  0
  8  9  1  0  0  0  0
  8 12  1  0  0  0  0
  8 31  1  0  0  0  0
  8 32  1  0  0  0  0
  9 13  1  0  0  0  0
  9 14  1  0  0  0  0
  9 33  1  0  0  0  0
 10 15  1  0  0  0  0
 10 34  1  0  0  0  0
 11 16  1  0  0  0  0
 11 35  1  0  0  0  0
 12 36  1  0  0  0  0
 12 37  1  0  0  0  0
 13 38  1  0  0  0  0
 13 39  1  0  0  0  0
 13 40  1  0  0  0  0
 14 41  1  0  0  0  0
 14 42  1  0  0  0  0
 14 43  1  0  0  0  0
 15 17  2  0  0  0  0
 16 18  2  0  0  0  0
 17 19  1  0  0  0  0
 17 46  1  0  0  0  0
 18 20  1  0  0  0  0
 18 47  1  0  0  0  0
 19 21  2  0  0  0  0
 19 23  1  0  0  0  0
 20 22  2  0  0  0  0
 20 24  1  0  0  0  0
 21 25  1  0  0  0  0
 21 48  1  0  0  0  0
 22 26  1  0  0  0  0
 22 49  1  0  0  0  0
 23 27  2  0  0  0  0
 23 50  1  0  0  0  0
 24 28  2  0  0  0  0
 24 51  1  0  0  0  0
 25 29  2  0  0  0  0
 25 52  1  0  0  0  0
 26 30  2  0  0  0  0
 26 53  1  0  0  0  0
 27 29  1  0  0  0  0
 27 54  1  0  0  0  0
 28 30  1  0  0  0  0
 28 55  1  0  0  0  0
 29 56  1  0  0  0  0
 30 57  1  0  0  0  0
M  END
> <PUBCHEM_COMPOUND_CID>
12921517

> <PUBCHEM_CONFORMER_RMSD>
1.2

> <PUBCHEM_CONFORMER_DIVERSEORDER>
1
126
100
108
118
106
93
109
72
62
76
32
66
98
81
46
113
73
101
78
63
27
117
74
92
40
114
53
33
67
87
95
19
64
122
124
60
18
86
102
41
28
90
57
49
8
127
11
110
97
25
23
56
39
116
37
16
26
88
111
103
80
99
7
17
48
51
36
115
77
38
50
94
55
58
24
105
6
61
119
120
29
43
10
75
121
45
34
3
125
83
79
4
70
44
85
123
71
65
84
52
107
31
96
30
5
59
12
35
104
91
82
112
68
21
2
15
69
54
42
47
89
13
14
9
22
20

> <PUBCHEM_MMFF94_PARTIAL_CHARGES>
40
1 -0.11
10 0.42
11 0.42
12 0.28
15 -0.03
16 -0.03
17 -0.18
18 -0.18
19 0.03
2 -0.11
20 0.03
21 -0.15
22 -0.15
23 -0.15
24 -0.15
25 -0.15
26 -0.15
27 -0.15
28 -0.15
29 -0.15
3 0.97
30 -0.15
4 -0.55
44 0.4
45 0.4
46 0.15
47 0.15
48 0.15
49 0.15
5 -0.7
50 0.15
51 0.15
52 0.15
53 0.15
54 0.15
55 0.15
56 0.15
57 0.15
6 -0.68
7 -0.68

> <PUBCHEM_EFFECTIVE_ROTOR_COUNT>
10

> <PUBCHEM_PHARMACOPHORE_FEATURES>
9
1 1 hydrophobe
1 2 hydrophobe
1 6 acceptor
1 6 donor
1 7 acceptor
1 7 donor
3 9 13 14 hydrophobe
6 19 21 23 25 27 29 rings
6 20 22 24 26 28 30 rings

> <PUBCHEM_HEAVY_ATOM_COUNT>
30

> <PUBCHEM_ATOM_DEF_STEREO_COUNT>
0

> <PUBCHEM_ATOM_UDEF_STEREO_COUNT>
2

> <PUBCHEM_BOND_DEF_STEREO_COUNT>
2

> <PUBCHEM_BOND_UDEF_STEREO_COUNT>
0

> <PUBCHEM_ISOTOPIC_ATOM_COUNT>
0

> <PUBCHEM_COMPONENT_COUNT>
1

> <PUBCHEM_CACTVS_TAUTO_COUNT>
1

> <PUBCHEM_CONFORMER_ID>
00C52AAD00000001

> <PUBCHEM_MMFF94_ENERGY>
66.9405

> <PUBCHEM_FEATURE_SELFOVERLAP>
45.671

> <PUBCHEM_SHAPE_FINGERPRINT>
10050765 1 18410293593066590873
10169797 241 18194709135314478707
11445158 3 18342166765929318452
12107183 9 18268442231176748577
12107698 1 18413109437764722587
12166972 35 17749399126351335542
12522641 24 18201441432105045512
12977781 61 17752222822403419091
13383668 251 18339912827274556240
13533116 47 18409733996933377952
13540713 4 18187630398071907989
13690498 29 17894910681726010519
13782708 43 18040714740683571571
14068700 675 18340492175128218827
14251764 30 18336827481440793522
14565420 104 18055914548271711432
14849402 71 18339931501682154328
14950920 106 18201722843026135033
14955137 171 18200878370808995668
15392192 104 17826519052512676057
15927050 60 18053664960908820134
19611394 137 18409733920146667178
19841028 212 18266734861581488483
20505436 4 17630046211839421324
20771845 171 17677905714774886381
21049683 271 18335427855337508508
21130935 74 18338523053626190835
23522609 53 18047227130891331317
23559900 14 17967811618130599549
24771750 20 18262807405956895820
249999 5 18340204206419951808
3411729 13 18198628915689095384
4093350 32 17131560530870654420
5104073 3 18269572653789090275
5385378 56 18268991058718596040
5912855 24 17912917576469450727
7495541 125 18410290268761221602

> <PUBCHEM_SHAPE_MULTIPOLES>
609.64
17.69
5.03
1.5
17.58
4.3
0.57
-12.57
-6.08
-10.35
-1.08
0.5
0.35
1.81

> <PUBCHEM_SHAPE_SELFOVERLAP>
1215.014

> <PUBCHEM_SHAPE_VOLUME>
365.3

> <PUBCHEM_COORDINATE_TYPE>
2
5
10

$$$$
