124375
  -OEChem-02172602293D

 39 40  0     1  0  0  0  0  0999 V2000
   -2.3987   -1.3097   -0.5474 O   0  0  0  0  0  0  0  0  0  0  0  0
   -3.9966    2.4814   -0.2458 O   0  0  0  0  0  0  0  0  0  0  0  0
   -0.4986    0.0437   -0.9650 O   0  0  0  0  0  0  0  0  0  0  0  0
   -2.1003    1.8780   -2.3368 O   0  0  0  0  0  0  0  0  0  0  0  0
   -3.4966    0.9139    2.1514 O   0  0  0  0  0  0  0  0  0  0  0  0
   -3.2249   -1.8584    1.5659 O   0  0  0  0  0  0  0  0  0  0  0  0
    0.2092   -2.1435   -1.0846 O   0  0  0  0  0  0  0  0  0  0  0  0
    2.9898    2.2843    1.6631 O   0  0  0  0  0  0  0  0  0  0  0  0
    5.2490   -1.2096   -0.7093 O   0  0  0  0  0  0  0  0  0  0  0  0
    5.3447    1.0322    0.9144 O   0  0  0  0  0  0  0  0  0  0  0  0
   -2.9829    1.4813   -0.1338 C   0  0  2  0  0  0  0  0  0  0  0  0
   -2.7049    0.8876   -1.5122 C   0  0  2  0  0  0  0  0  0  0  0  0
   -3.4833    0.3974    0.8204 C   0  0  1  0  0  0  0  0  0  0  0  0
   -1.7993   -0.3392   -1.4076 C   0  0  2  0  0  0  0  0  0  0  0  0
   -2.5889   -0.8430    0.7888 C   0  0  2  0  0  0  0  0  0  0  0  0
    0.4091   -0.9622   -0.8478 C   0  0  0  0  0  0  0  0  0  0  0  0
   -2.4541   -3.0494    1.5872 C   0  0  0  0  0  0  0  0  0  0  0  0
    1.7160   -0.4351   -0.3801 C   0  0  0  0  0  0  0  0  0  0  0  0
    2.8728   -1.0785   -0.7694 C   0  0  0  0  0  0  0  0  0  0  0  0
    1.7330    0.6833    0.4279 C   0  0  0  0  0  0  0  0  0  0  0  0
    2.9606    1.1800    0.8658 C   0  0  0  0  0  0  0  0  0  0  0  0
    4.1004   -0.5818   -0.3314 C   0  0  0  0  0  0  0  0  0  0  0  0
    4.1444    0.5475    0.4862 C   0  0  0  0  0  0  0  0  0  0  0  0
   -2.0957    1.9816    0.2729 H   0  0  0  0  0  0  0  0  0  0  0  0
   -3.6594    0.6097   -1.9766 H   0  0  0  0  0  0  0  0  0  0  0  0
   -4.5172    0.1230    0.5758 H   0  0  0  0  0  0  0  0  0  0  0  0
   -1.6966   -0.7839   -2.4052 H   0  0  0  0  0  0  0  0  0  0  0  0
   -1.6210   -0.6212    1.2572 H   0  0  0  0  0  0  0  0  0  0  0  0
   -3.6795    3.1455   -0.8815 H   0  0  0  0  0  0  0  0  0  0  0  0
   -1.9306    1.4728   -3.2042 H   0  0  0  0  0  0  0  0  0  0  0  0
   -4.0543    1.7107    2.1482 H   0  0  0  0  0  0  0  0  0  0  0  0
   -2.9299   -3.7498    2.2794 H   0  0  0  0  0  0  0  0  0  0  0  0
   -1.4375   -2.8526    1.9423 H   0  0  0  0  0  0  0  0  0  0  0  0
   -2.4264   -3.5182    0.5991 H   0  0  0  0  0  0  0  0  0  0  0  0
    2.8371   -1.9559   -1.4094 H   0  0  0  0  0  0  0  0  0  0  0  0
    0.8211    1.1818    0.7451 H   0  0  0  0  0  0  0  0  0  0  0  0
    3.9186    2.4877    1.8699 H   0  0  0  0  0  0  0  0  0  0  0  0
    5.0245   -1.9702   -1.2723 H   0  0  0  0  0  0  0  0  0  0  0  0
    6.0503    0.4680    0.5532 H   0  0  0  0  0  0  0  0  0  0  0  0
  1 14  1  0  0  0  0
  1 15  1  0  0  0  0
  2 11  1  0  0  0  0
  2 29  1  0  0  0  0
  3 14  1  0  0  0  0
  3 16  1  0  0  0  0
  4 12  1  0  0  0  0
  4 30  1  0  0  0  0
  5 13  1  0  0  0  0
  5 31  1  0  0  0  0
  6 15  1  0  0  0  0
  6 17  1  0  0  0  0
  7 16  2  0  0  0  0
  8 21  1  0  0  0  0
  8 37  1  0  0  0  0
  9 22  1  0  0  0  0
  9 38  1  0  0  0  0
 10 23  1  0  0  0  0
 10 39  1  0  0  0  0
 11 12  1  0  0  0  0
 11 13  1  0  0  0  0
 11 24  1  0  0  0  0
 12 14  1  0  0  0  0
 12 25  1  0  0  0  0
 13 15  1  0  0  0  0
 13 26  1  0  0  0  0
 14 27  1  0  0  0  0
 15 28  1  0  0  0  0
 16 18  1  0  0  0  0
 17 32  1  0  0  0  0
 17 33  1  0  0  0  0
 17 34  1  0  0  0  0
 18 19  2  0  0  0  0
 18 20  1  0  0  0  0
 19 22  1  0  0  0  0
 19 35  1  0  0  0  0
 20 21  2  0  0  0  0
 20 36  1  0  0  0  0
 21 23  1  0  0  0  0
 22 23  2  0  0  0  0
M  END
> <PUBCHEM_COMPOUND_CID>
124375

> <PUBCHEM_CONFORMER_RMSD>
0.8

> <PUBCHEM_CONFORMER_DIVERSEORDER>
1
52
22
68
5
21
56
47
24
51
32
13
35
26
64
41
18
17
42
61
3
60
2
33
7
37
40
15
36
39
31
67
20
43
62
8
27
46
19
58
9
49
38
53
30
54
4
48
6
66
14
44
11
23
65
28
50
55
57
45
29
25
63
12
16
34
10
59

> <PUBCHEM_MMFF94_PARTIAL_CHARGES>
31
1 -0.56
10 -0.53
11 0.28
12 0.28
13 0.28
14 0.56
15 0.56
16 0.63
17 0.28
18 0.09
19 -0.15
2 -0.68
20 -0.15
21 0.08
22 0.08
23 0.08
29 0.4
3 -0.43
30 0.4
31 0.4
35 0.15
36 0.15
37 0.45
38 0.45
39 0.45
4 -0.68
5 -0.68
6 -0.56
7 -0.57
8 -0.53
9 -0.53

> <PUBCHEM_EFFECTIVE_ROTOR_COUNT>
5.2

> <PUBCHEM_PHARMACOPHORE_FEATURES>
14
1 1 acceptor
1 10 donor
1 2 acceptor
1 2 donor
1 4 acceptor
1 4 donor
1 5 acceptor
1 5 donor
1 6 acceptor
1 7 acceptor
1 8 donor
1 9 donor
6 1 11 12 13 14 15 rings
6 18 19 20 21 22 23 rings

> <PUBCHEM_HEAVY_ATOM_COUNT>
23

> <PUBCHEM_ATOM_DEF_STEREO_COUNT>
4

> <PUBCHEM_ATOM_UDEF_STEREO_COUNT>
1

> <PUBCHEM_BOND_DEF_STEREO_COUNT>
0

> <PUBCHEM_BOND_UDEF_STEREO_COUNT>
0

> <PUBCHEM_ISOTOPIC_ATOM_COUNT>
0

> <PUBCHEM_COMPONENT_COUNT>
1

> <PUBCHEM_CACTVS_TAUTO_COUNT>
14

> <PUBCHEM_CONFORMER_ID>
0001E5D700000001

> <PUBCHEM_MMFF94_ENERGY>
64.479

> <PUBCHEM_FEATURE_SELFOVERLAP>
71.119

> <PUBCHEM_SHAPE_FINGERPRINT>
10366900 7 18408317765869348055
11370993 144 18341905060280966458
11552529 35 18114746043829173331
11640471 11 15625951880618672007
12633257 1 18262255386067235345
12670545 47 18260550030425931181
13583140 156 18189315992314708594
13675066 3 18342178886416742990
14178342 30 17894916230323064475
14289901 80 17530682126054828494
15295992 7 18272931617807289416
16988056 13 11875381254094829331
18186145 218 17632580474397695038
18219364 16 18202281424348852383
20775530 9 13337023934523204377
21033648 29 18272357694581887120
21033650 10 12319192740630611498
21475661 188 17553220813324161233
21650355 55 17822577204727103535
21864079 5 17489594497337412600
23419403 2 17758943115599194367
23559900 14 18115031780088921782
23598288 3 15647329706698731487
27216 239 18342173388705428357
2838139 119 17345194394501852105
469060 322 17409350111433204483
474 4 17632011953338869406
5104073 3 18201714068460969762
602551 16 17821732766780480386
6049 1 18409166653586888100
633830 44 17632581522327485006
90127 26 18342740719699623446

> <PUBCHEM_SHAPE_MULTIPOLES>
414.64
9.65
2.46
1.79
8.66
0.65
-0.1
-1.84
-2.44
-2.16
-0.6
-1.19
-0.25
2.36

> <PUBCHEM_SHAPE_SELFOVERLAP>
880.887

> <PUBCHEM_SHAPE_VOLUME>
228.5

> <PUBCHEM_COORDINATE_TYPE>
2
5
10

$$$$
