10091888
  -OEChem-02172602533D

 38 37  0     1  0  0  0  0  0999 V2000
    0.4949    3.2955   -2.1869 I   0  0  0  0  0  0  0  0  0  0  0  0
    3.8837    1.2085    1.3795 F   0  0  0  0  0  0  0  0  0  0  0  0
    1.8594    0.6850    1.9413 F   0  0  0  0  0  0  0  0  0  0  0  0
    1.7228   -1.2614    0.2132 O   0  0  0  0  0  0  0  0  0  0  0  0
   -3.8085   -0.0189   -0.3490 O   0  0  0  0  0  0  0  0  0  0  0  0
    3.9264   -0.8824   -0.3579 O   0  0  0  0  0  0  0  0  0  0  0  0
   -5.1191    0.0719    1.5512 O   0  0  0  0  0  0  0  0  0  0  0  0
    0.8685    1.5610   -0.8261 C   0  0  2  0  0  0  0  0  0  0  0  0
   -0.3460    1.3801    0.1011 C   0  0  0  0  0  0  0  0  0  0  0  0
    2.1859    1.8674   -0.0823 C   0  0  0  0  0  0  0  0  0  0  0  0
   -1.5441    0.7243   -0.5943 C   0  0  0  0  0  0  0  0  0  0  0  0
    2.6905    0.7830    0.8706 C   0  0  0  0  0  0  0  0  0  0  0  0
   -2.7276    0.5787    0.3538 C   0  0  0  0  0  0  0  0  0  0  0  0
    2.8789   -0.5408    0.1760 C   0  0  0  0  0  0  0  0  0  0  0  0
    1.7666   -2.5328   -0.4414 C   0  0  0  0  0  0  0  0  0  0  0  0
    1.3898   -2.3562   -1.9044 C   0  0  0  0  0  0  0  0  0  0  0  0
    0.8305   -3.4960    0.2727 C   0  0  0  0  0  0  0  0  0  0  0  0
   -4.9526   -0.2170    0.3739 C   0  0  0  0  0  0  0  0  0  0  0  0
   -6.0000   -0.8500   -0.4911 C   0  0  0  0  0  0  0  0  0  0  0  0
    0.9962    0.6892   -1.4762 H   0  0  0  0  0  0  0  0  0  0  0  0
   -0.6448    2.3427    0.5339 H   0  0  0  0  0  0  0  0  0  0  0  0
   -0.0861    0.7314    0.9415 H   0  0  0  0  0  0  0  0  0  0  0  0
    2.0711    2.7941    0.4955 H   0  0  0  0  0  0  0  0  0  0  0  0
    2.9776    2.0674   -0.8167 H   0  0  0  0  0  0  0  0  0  0  0  0
   -1.2631   -0.2645   -0.9770 H   0  0  0  0  0  0  0  0  0  0  0  0
   -1.8619    1.3034   -1.4682 H   0  0  0  0  0  0  0  0  0  0  0  0
   -3.0347    1.5639    0.7241 H   0  0  0  0  0  0  0  0  0  0  0  0
   -2.4508   -0.0546    1.2049 H   0  0  0  0  0  0  0  0  0  0  0  0
    2.7747   -2.9621   -0.3791 H   0  0  0  0  0  0  0  0  0  0  0  0
    2.0811   -1.6710   -2.4062 H   0  0  0  0  0  0  0  0  0  0  0  0
    1.4053   -3.3125   -2.4360 H   0  0  0  0  0  0  0  0  0  0  0  0
    0.3898   -1.9201   -2.0007 H   0  0  0  0  0  0  0  0  0  0  0  0
    1.1221   -3.6022    1.3231 H   0  0  0  0  0  0  0  0  0  0  0  0
    0.8409   -4.4849   -0.1954 H   0  0  0  0  0  0  0  0  0  0  0  0
   -0.1971   -3.1158    0.2691 H   0  0  0  0  0  0  0  0  0  0  0  0
   -6.2352   -0.1906   -1.3303 H   0  0  0  0  0  0  0  0  0  0  0  0
   -6.9098   -1.0058    0.0957 H   0  0  0  0  0  0  0  0  0  0  0  0
   -5.6470   -1.8199   -0.8503 H   0  0  0  0  0  0  0  0  0  0  0  0
  1  8  1  0  0  0  0
  2 12  1  0  0  0  0
  3 12  1  0  0  0  0
  4 14  1  0  0  0  0
  4 15  1  0  0  0  0
  5 13  1  0  0  0  0
  5 18  1  0  0  0  0
  6 14  2  0  0  0  0
  7 18  2  0  0  0  0
  8  9  1  0  0  0  0
  8 10  1  0  0  0  0
  8 20  1  0  0  0  0
  9 11  1  0  0  0  0
  9 21  1  0  0  0  0
  9 22  1  0  0  0  0
 10 12  1  0  0  0  0
 10 23  1  0  0  0  0
 10 24  1  0  0  0  0
 11 13  1  0  0  0  0
 11 25  1  0  0  0  0
 11 26  1  0  0  0  0
 12 14  1  0  0  0  0
 13 27  1  0  0  0  0
 13 28  1  0  0  0  0
 15 16  1  0  0  0  0
 15 17  1  0  0  0  0
 15 29  1  0  0  0  0
 16 30  1  0  0  0  0
 16 31  1  0  0  0  0
 16 32  1  0  0  0  0
 17 33  1  0  0  0  0
 17 34  1  0  0  0  0
 17 35  1  0  0  0  0
 18 19  1  0  0  0  0
 19 36  1  0  0  0  0
 19 37  1  0  0  0  0
 19 38  1  0  0  0  0
M  END
> <PUBCHEM_COMPOUND_CID>
10091888

> <PUBCHEM_CONFORMER_RMSD>
1

> <PUBCHEM_CONFORMER_DIVERSEORDER>
1
111
162
142
151
73
60
37
158
140
98
153
277
279
161
281
120
141
121
171
230
167
259
8
262
110
13
83
241
219
220
216
24
295
255
293
16
283
196
104
168
286
23
6
87
189
119
107
234
197
89
266
180
38
152
100
298
29
223
267
208
215
133
172
41
264
155
14
48
179
265
201
117
144
3
53
242
256
148
56
190
282
20
188
203
238
263
18
12
235
66
211
106
165
139
225
84
51
187
75
123
79
270
102
199
63
10
209
253
287
269
228
105
95
45
245
126
226
62
15
157
175
72
178
231
292
294
240
218
52
200
145
132
74
70
221
248
150
146
114
213
254
272
92
173
31
35
99
274
96
68
71
69
284
185
160
128
124
43
207
147
143
296
22
42
57
131
258
127
176
252
224
32
244
271
169
58
55
260
174
285
198
193
39
81
184
273
268
130
257
181
177
250
94
40
202
136
156
289
159
2
9
50
64
186
251
82
276
19
232
30
93
101
210
297
21
135
280
115
206
26
183
239
275
78
125
154
243
4
246
88
204
249
54
44
25
237
137
214
138
90
278
290
103
134
11
109
236
182
217
108
194
288
67
17
191
7
195
205
227
47
49
77
291
116
91
61
27
261
118
80
28
170
76
65
46
164
34
5
86
163
112
97
36
149
113
229
122
212
233
59
222
247
192
85
166
129
33

> <PUBCHEM_MMFF94_PARTIAL_CHARGES>
14
1 -0.19
12 0.74
13 0.28
14 0.66
15 0.28
18 0.66
19 0.06
2 -0.34
3 -0.34
4 -0.43
5 -0.43
6 -0.57
7 -0.57
8 0.19

> <PUBCHEM_EFFECTIVE_ROTOR_COUNT>
10

> <PUBCHEM_PHARMACOPHORE_FEATURES>
4
1 1 hydrophobe
1 6 acceptor
1 7 acceptor
3 15 16 17 hydrophobe

> <PUBCHEM_HEAVY_ATOM_COUNT>
19

> <PUBCHEM_ATOM_DEF_STEREO_COUNT>
0

> <PUBCHEM_ATOM_UDEF_STEREO_COUNT>
1

> <PUBCHEM_BOND_DEF_STEREO_COUNT>
0

> <PUBCHEM_BOND_UDEF_STEREO_COUNT>
0

> <PUBCHEM_ISOTOPIC_ATOM_COUNT>
0

> <PUBCHEM_COMPONENT_COUNT>
1

> <PUBCHEM_CACTVS_TAUTO_COUNT>
1

> <PUBCHEM_CONFORMER_ID>
0099FD7000000001

> <PUBCHEM_MMFF94_ENERGY>
24.1841

> <PUBCHEM_FEATURE_SELFOVERLAP>
20.297

> <PUBCHEM_SHAPE_FINGERPRINT>
10064457 181 18059287785525765274
114674 6 18335705988149531747
12363563 72 17603869974964938857
12596602 18 17275105063758151419
12778500 126 17416422986767882875
13464513 79 18412548686966522838
13533116 47 18131632271385707819
13583140 156 17703211967664048673
13836976 161 18262802994022909405
14004458 79 16082481155638470020
14251740 57 17989216932212408255
14251764 30 16842218358946929942
14252887 29 18334575733002977809
14863182 85 18342464767481143540
15422964 175 18261952929969425437
15635459 17 18334014960867000907
17492 54 17825136850738133916
20645477 70 17968939820403533173
21197605 99 18124879220939121007
21673915 165 18272082859751398199
22224240 67 18199734994559172880
23557571 272 17604987010080141677
3060560 45 18262247736651554932
33824 294 18412259532229701123
338550 245 18194680591309677743
427121 178 17917138511655956850
465052 167 17822291322871269769
54040823 5 17531247292090607640
6443956 14 18410578349113050301
81228 2 17607809400294023813
9841814 1 17386002905483523801

> <PUBCHEM_SHAPE_MULTIPOLES>
364.92
9.17
3.71
1.63
18.45
0.02
-0.2
2.72
2.53
-2.97
-2.46
-0.75
-0.43
0.56

> <PUBCHEM_SHAPE_SELFOVERLAP>
681.05

> <PUBCHEM_SHAPE_VOLUME>
232.1

> <PUBCHEM_COORDINATE_TYPE>
2
5
10

$$$$
