10115057
  -OEChem-02172602533D

 68 69  0     0  0  0  0  0  0999 V2000
    0.1917    0.1305    1.0683 O   0  0  0  0  0  0  0  0  0  0  0  0
   -4.4487    1.8029    2.6640 O   0  0  0  0  0  0  0  0  0  0  0  0
    3.9110   -1.2735    2.4767 O   0  0  0  0  0  0  0  0  0  0  0  0
    5.6656    2.7079   -1.9426 O   0  0  0  0  0  0  0  0  0  0  0  0
   -1.0329   -1.2668   -0.3691 N   0  0  0  0  0  0  0  0  0  0  0  0
    2.5162   -1.1725    0.5910 N   0  0  0  0  0  0  0  0  0  0  0  0
   -4.0000    3.3289    0.9509 N   0  0  0  0  0  0  0  0  0  0  0  0
   -3.1621   -2.4932   -1.8972 C   0  0  0  0  0  0  0  0  0  0  0  0
   -3.3909   -1.3138   -1.0085 C   0  0  0  0  0  0  0  0  0  0  0  0
   -4.4847   -2.9390   -2.5922 C   0  0  0  0  0  0  0  0  0  0  0  0
   -2.6194   -3.7108   -1.0885 C   0  0  0  0  0  0  0  0  0  0  0  0
   -2.1356   -2.2685   -3.0550 C   0  0  0  0  0  0  0  0  0  0  0  0
   -2.3448   -0.7429   -0.2838 C   0  0  0  0  0  0  0  0  0  0  0  0
   -4.6775   -0.7839   -0.9108 C   0  0  0  0  0  0  0  0  0  0  0  0
   -2.5852    0.3579    0.5385 C   0  0  0  0  0  0  0  0  0  0  0  0
   -3.8718    0.8876    0.6364 C   0  0  0  0  0  0  0  0  0  0  0  0
   -4.9181    0.3167   -0.0883 C   0  0  0  0  0  0  0  0  0  0  0  0
    1.3068   -1.6623   -0.0888 C   0  0  0  0  0  0  0  0  0  0  0  0
    0.1073   -0.8118    0.2876 C   0  0  0  0  0  0  0  0  0  0  0  0
    3.3309   -0.1692   -0.0647 C   0  0  0  0  0  0  0  0  0  0  0  0
   -4.1230    2.0360    1.4922 C   0  0  0  0  0  0  0  0  0  0  0  0
    2.9093   -1.6479    1.8618 C   0  0  0  0  0  0  0  0  0  0  0  0
    2.7407    0.7520   -0.9301 C   0  0  0  0  0  0  0  0  0  0  0  0
    4.7052   -0.1242    0.1698 C   0  0  0  0  0  0  0  0  0  0  0  0
    3.5246    1.7183   -1.5606 C   0  0  0  0  0  0  0  0  0  0  0  0
    5.4891    0.8417   -0.4609 C   0  0  0  0  0  0  0  0  0  0  0  0
    4.8989    1.7632   -1.3260 C   0  0  0  0  0  0  0  0  0  0  0  0
    2.0251   -2.7333    2.4691 C   0  0  0  0  0  0  0  0  0  0  0  0
    2.8747    2.6960   -2.4833 C   0  0  0  0  0  0  0  0  0  0  0  0
    6.9587    0.8737   -0.1978 C   0  0  0  0  0  0  0  0  0  0  0  0
   -3.6125    3.5564   -0.4396 C   0  0  0  0  0  0  0  0  0  0  0  0
   -4.2506    4.5269    1.7399 C   0  0  0  0  0  0  0  0  0  0  0  0
    2.5023   -3.1832    3.8416 C   0  0  0  0  0  0  0  0  0  0  0  0
   -4.8941   -2.1606   -3.2475 H   0  0  0  0  0  0  0  0  0  0  0  0
   -5.2470   -3.2549   -1.8700 H   0  0  0  0  0  0  0  0  0  0  0  0
   -4.3045   -3.8107   -3.2348 H   0  0  0  0  0  0  0  0  0  0  0  0
   -3.2344   -3.8778   -0.1951 H   0  0  0  0  0  0  0  0  0  0  0  0
   -1.5815   -3.6736   -0.7611 H   0  0  0  0  0  0  0  0  0  0  0  0
   -2.6929   -4.6242   -1.6934 H   0  0  0  0  0  0  0  0  0  0  0  0
   -2.0829   -3.1541   -3.7007 H   0  0  0  0  0  0  0  0  0  0  0  0
   -2.4674   -1.4315   -3.6824 H   0  0  0  0  0  0  0  0  0  0  0  0
   -1.1101   -2.0435   -2.7669 H   0  0  0  0  0  0  0  0  0  0  0  0
   -5.5435   -1.1643   -1.4383 H   0  0  0  0  0  0  0  0  0  0  0  0
   -1.8244    0.8508    1.1267 H   0  0  0  0  0  0  0  0  0  0  0  0
   -0.8698   -2.0480   -0.9782 H   0  0  0  0  0  0  0  0  0  0  0  0
   -5.9241    0.7231   -0.0195 H   0  0  0  0  0  0  0  0  0  0  0  0
    1.1001   -2.7030    0.1702 H   0  0  0  0  0  0  0  0  0  0  0  0
    1.4596   -1.6353   -1.1744 H   0  0  0  0  0  0  0  0  0  0  0  0
    1.6742    0.7446   -1.1288 H   0  0  0  0  0  0  0  0  0  0  0  0
    5.2195   -0.8732    0.7618 H   0  0  0  0  0  0  0  0  0  0  0  0
    1.0005   -2.3586    2.5556 H   0  0  0  0  0  0  0  0  0  0  0  0
    2.0362   -3.6070    1.8095 H   0  0  0  0  0  0  0  0  0  0  0  0
    1.7947    2.5269   -2.5587 H   0  0  0  0  0  0  0  0  0  0  0  0
    3.2844    2.6036   -3.4947 H   0  0  0  0  0  0  0  0  0  0  0  0
    3.0136    3.7201   -2.1210 H   0  0  0  0  0  0  0  0  0  0  0  0
    7.5131    0.6720   -1.1202 H   0  0  0  0  0  0  0  0  0  0  0  0
    7.2548    1.8533    0.1922 H   0  0  0  0  0  0  0  0  0  0  0  0
    7.2615    0.1243    0.5413 H   0  0  0  0  0  0  0  0  0  0  0  0
   -2.6992    4.1593   -0.4482 H   0  0  0  0  0  0  0  0  0  0  0  0
   -3.4277    2.6445   -1.0065 H   0  0  0  0  0  0  0  0  0  0  0  0
   -4.4142    4.1142   -0.9334 H   0  0  0  0  0  0  0  0  0  0  0  0
   -5.0619    5.0938    1.2747 H   0  0  0  0  0  0  0  0  0  0  0  0
   -4.5344    4.2704    2.7636 H   0  0  0  0  0  0  0  0  0  0  0  0
   -3.3406    5.1332    1.7616 H   0  0  0  0  0  0  0  0  0  0  0  0
    1.8423   -3.9612    4.2375 H   0  0  0  0  0  0  0  0  0  0  0  0
    3.5178   -3.5898    3.7925 H   0  0  0  0  0  0  0  0  0  0  0  0
    2.5078   -2.3472    4.5489 H   0  0  0  0  0  0  0  0  0  0  0  0
    5.1303    3.2804   -2.5133 H   0  0  0  0  0  0  0  0  0  0  0  0
  1 19  2  0  0  0  0
  2 21  2  0  0  0  0
  3 22  2  0  0  0  0
  4 27  1  0  0  0  0
  4 68  1  0  0  0  0
  5 13  1  0  0  0  0
  5 19  1  0  0  0  0
  5 45  1  0  0  0  0
  6 18  1  0  0  0  0
  6 20  1  0  0  0  0
  6 22  1  0  0  0  0
  7 21  1  0  0  0  0
  7 31  1  0  0  0  0
  7 32  1  0  0  0  0
  8  9  1  0  0  0  0
  8 10  1  0  0  0  0
  8 11  1  0  0  0  0
  8 12  1  0  0  0  0
  9 13  2  0  0  0  0
  9 14  1  0  0  0  0
 10 34  1  0  0  0  0
 10 35  1  0  0  0  0
 10 36  1  0  0  0  0
 11 37  1  0  0  0  0
 11 38  1  0  0  0  0
 11 39  1  0  0  0  0
 12 40  1  0  0  0  0
 12 41  1  0  0  0  0
 12 42  1  0  0  0  0
 13 15  1  0  0  0  0
 14 17  2  0  0  0  0
 14 43  1  0  0  0  0
 15 16  2  0  0  0  0
 15 44  1  0  0  0  0
 16 17  1  0  0  0  0
 16 21  1  0  0  0  0
 17 46  1  0  0  0  0
 18 19  1  0  0  0  0
 18 47  1  0  0  0  0
 18 48  1  0  0  0  0
 20 23  2  0  0  0  0
 20 24  1  0  0  0  0
 22 28  1  0  0  0  0
 23 25  1  0  0  0  0
 23 49  1  0  0  0  0
 24 26  2  0  0  0  0
 24 50  1  0  0  0  0
 25 27  2  0  0  0  0
 25 29  1  0  0  0  0
 26 27  1  0  0  0  0
 26 30  1  0  0  0  0
 28 33  1  0  0  0  0
 28 51  1  0  0  0  0
 28 52  1  0  0  0  0
 29 53  1  0  0  0  0
 29 54  1  0  0  0  0
 29 55  1  0  0  0  0
 30 56  1  0  0  0  0
 30 57  1  0  0  0  0
 30 58  1  0  0  0  0
 31 59  1  0  0  0  0
 31 60  1  0  0  0  0
 31 61  1  0  0  0  0
 32 62  1  0  0  0  0
 32 63  1  0  0  0  0
 32 64  1  0  0  0  0
 33 65  1  0  0  0  0
 33 66  1  0  0  0  0
 33 67  1  0  0  0  0
M  END
> <PUBCHEM_COMPOUND_CID>
10115057

> <PUBCHEM_CONFORMER_RMSD>
1

> <PUBCHEM_CONFORMER_DIVERSEORDER>
1
71
47
113
121
53
84
72
89
27
69
82
58
107
48
95
119
96
108
105
102
35
77
32
122
31
74
117
67
93
61
14
109
80
34
6
73
33
55
20
17
118
90
120
37
24
81
87
25
13
28
57
15
50
91
86
79
115
63
66
116
59
41
83
98
70
7
40
26
94
103
42
60
36
106
88
114
64
99
29
52
110
46
11
44
111
76
54
9
78
5
97
18
75
101
30
68
112
43
12
39
23
8
104
38
62
22
45
21
65
85
100
49
56
4
51
92
2
19
10
16
3

> <PUBCHEM_MMFF94_PARTIAL_CHARGES>
36
1 -0.57
13 0.12
14 -0.15
15 -0.15
16 0.09
17 -0.15
18 0.36
19 0.57
2 -0.57
20 0.12
21 0.54
22 0.57
23 -0.15
24 -0.15
25 -0.14
26 -0.14
27 0.08
28 0.06
29 0.14
3 -0.57
30 0.14
31 0.3
32 0.3
4 -0.53
43 0.15
44 0.15
45 0.37
46 0.15
49 0.15
5 -0.55
50 0.15
6 -0.48
68 0.45
7 -0.66
8 0.14
9 -0.14

> <PUBCHEM_EFFECTIVE_ROTOR_COUNT>
10

> <PUBCHEM_PHARMACOPHORE_FEATURES>
9
1 1 acceptor
1 2 acceptor
1 3 acceptor
1 33 hydrophobe
1 4 donor
1 5 donor
4 8 10 11 12 hydrophobe
6 20 23 24 25 26 27 rings
6 9 13 14 15 16 17 rings

> <PUBCHEM_HEAVY_ATOM_COUNT>
33

> <PUBCHEM_ATOM_DEF_STEREO_COUNT>
0

> <PUBCHEM_ATOM_UDEF_STEREO_COUNT>
0

> <PUBCHEM_BOND_DEF_STEREO_COUNT>
0

> <PUBCHEM_BOND_UDEF_STEREO_COUNT>
0

> <PUBCHEM_ISOTOPIC_ATOM_COUNT>
0

> <PUBCHEM_COMPONENT_COUNT>
1

> <PUBCHEM_CACTVS_TAUTO_COUNT>
4

> <PUBCHEM_CONFORMER_ID>
009A57F100000001

> <PUBCHEM_MMFF94_ENERGY>
138.1127

> <PUBCHEM_FEATURE_SELFOVERLAP>
45.671

> <PUBCHEM_SHAPE_FINGERPRINT>
10010297 198 18042689390594662122
105312 117 17703800175987510285
10670039 82 18060137656495437015
11049842 53 17772191911990205103
11331351 85 17905317439356434450
12342043 65 15768931444760681799
12788726 201 18270390707198777991
13583140 156 17170114733909265065
13617811 41 17844803888165261071
13690498 29 17702941577454240231
13782708 43 15984542342188874798
14114206 34 18127388246285713487
14294032 229 18060144211517740441
14950920 106 17531823328967428177
15021287 119 17970054548810529410
15297060 5 17344080575826173889
15328829 1 18336816563391126143
15361156 5 14548747200380886442
15448158 71 18261689072764849532
15484559 13 15732861553594681676
15513586 35 18261688068043124113
15842332 3 18336251380160361979
16992828 155 18262801761785060309
19319366 153 18261120655380279425
20511986 3 18410282631840066068
21033648 144 17168699885935792710
21033650 10 17989212576667131386
21120745 212 18127978705730953205
21796203 349 17171235106341587146
22122407 14 17750511785275034989
23559900 14 16486968548493237746
24771293 8 18261658317837938578
24771750 20 17415298139265437895
25147074 1 18337098012619190435
3388396 114 17693099973465856285
3610482 184 18193300669529974900
38570 142 18115891679690781910
474 4 17967533510370974442
581034 39 18272654510812273703
6058803 2 18337094679809231315
633830 44 18260277347595740066
6608658 132 18412266155496825797
6700243 42 17198860623435282661
6823239 73 17274814813704436226
9849439 229 17843683253999027577

> <PUBCHEM_SHAPE_MULTIPOLES>
640.7
14.24
4.88
3.13
10.35
2.28
1.28
7.92
-2.2
-5.47
0.77
0.47
-1.91
-9.09

> <PUBCHEM_SHAPE_SELFOVERLAP>
1340.69

> <PUBCHEM_SHAPE_VOLUME>
364.8

> <PUBCHEM_COORDINATE_TYPE>
2
5
10

$$$$
