521947
  -OEChem-02172602473D

 15 15  0     0  0  0  0  0  0999 V2000
   -1.9865   -1.2019    0.0003 O   0  0  0  0  0  0  0  0  0  0  0  0
   -0.0548   -0.0168   -0.0003 N   0  0  0  0  0  0  0  0  0  0  0  0
    0.7994   -1.1056   -0.0005 C   0  0  0  0  0  0  0  0  0  0  0  0
    0.7281    1.1221   -0.0003 C   0  0  0  0  0  0  0  0  0  0  0  0
   -1.4542   -0.1007    0.0000 C   0  0  0  0  0  0  0  0  0  0  0  0
    2.1003   -0.6561    0.0004 C   0  0  0  0  0  0  0  0  0  0  0  0
    2.0553    0.7531    0.0003 C   0  0  0  0  0  0  0  0  0  0  0  0
   -2.1875    1.2059    0.0001 C   0  0  0  0  0  0  0  0  0  0  0  0
    0.4105   -2.1154   -0.0008 H   0  0  0  0  0  0  0  0  0  0  0  0
    0.2885    2.1101   -0.0004 H   0  0  0  0  0  0  0  0  0  0  0  0
    2.9820   -1.2814    0.0008 H   0  0  0  0  0  0  0  0  0  0  0  0
    2.8958    1.4327    0.0005 H   0  0  0  0  0  0  0  0  0  0  0  0
   -1.9505    1.7794    0.9002 H   0  0  0  0  0  0  0  0  0  0  0  0
   -3.2640    1.0076    0.0002 H   0  0  0  0  0  0  0  0  0  0  0  0
   -1.9507    1.7795   -0.8999 H   0  0  0  0  0  0  0  0  0  0  0  0
  1  5  2  0  0  0  0
  2  3  1  0  0  0  0
  2  4  1  0  0  0  0
  2  5  1  0  0  0  0
  3  6  2  0  0  0  0
  3  9  1  0  0  0  0
  4  7  2  0  0  0  0
  4 10  1  0  0  0  0
  5  8  1  0  0  0  0
  6  7  1  0  0  0  0
  6 11  1  0  0  0  0
  7 12  1  0  0  0  0
  8 13  1  0  0  0  0
  8 14  1  0  0  0  0
  8 15  1  0  0  0  0
M  END
> <PUBCHEM_COMPOUND_CID>
521947

> <PUBCHEM_CONFORMER_RMSD>
0.4

> <PUBCHEM_CONFORMER_DIVERSEORDER>
1
2

> <PUBCHEM_MMFF94_PARTIAL_CHARGES>
12
1 -0.57
10 0.15
11 0.15
12 0.15
2 0.29
3 -0.3
4 -0.3
5 0.52
6 -0.15
7 -0.15
8 0.06
9 0.15

> <PUBCHEM_EFFECTIVE_ROTOR_COUNT>
1

> <PUBCHEM_PHARMACOPHORE_FEATURES>
2
1 1 acceptor
5 2 3 4 6 7 rings

> <PUBCHEM_HEAVY_ATOM_COUNT>
8

> <PUBCHEM_ATOM_DEF_STEREO_COUNT>
0

> <PUBCHEM_ATOM_UDEF_STEREO_COUNT>
0

> <PUBCHEM_BOND_DEF_STEREO_COUNT>
0

> <PUBCHEM_BOND_UDEF_STEREO_COUNT>
0

> <PUBCHEM_ISOTOPIC_ATOM_COUNT>
0

> <PUBCHEM_COMPONENT_COUNT>
1

> <PUBCHEM_CACTVS_TAUTO_COUNT>
1

> <PUBCHEM_CONFORMER_ID>
0007F6DB00000001

> <PUBCHEM_MMFF94_ENERGY>
10.3177

> <PUBCHEM_FEATURE_SELFOVERLAP>
10.148

> <PUBCHEM_SHAPE_FINGERPRINT>
12897270 3 18338795744555789863
14390081 3 18343298180067973833
18185500 45 18411136900766252658
20096714 4 18411138043290941280
21040471 1 18338516455886198756
23552423 10 18261115162191148582
24536 1 18337939156209690677
29004967 10 18410577279639319666
5084963 1 18200317743931714896

> <PUBCHEM_SHAPE_MULTIPOLES>
153.79
3.21
1.39
0.59
0.6
0
0
0.21
0
0.18
0
-0.02
0.02
0

> <PUBCHEM_SHAPE_SELFOVERLAP>
315.732

> <PUBCHEM_SHAPE_VOLUME>
90.3

> <PUBCHEM_COORDINATE_TYPE>
2
5
10

$$$$
