10891541
  -OEChem-02172602443D

 21 20  0     0  0  0  0  0  0999 V2000
    0.5562   -2.3540    0.4434 I   0  0  0  0  0  0  0  0  0  0  0  0
   -4.4917    1.1004   -0.6015 Cl  0  0  0  0  0  0  0  0  0  0  0  0
    2.4664    0.8121    0.7531 O   0  0  0  0  0  0  0  0  0  0  0  0
    2.9529   -0.1533   -1.2839 O   0  0  0  0  0  0  0  0  0  0  0  0
   -2.3902    0.0330    0.8026 C   0  0  0  0  0  0  0  0  0  0  0  0
   -1.6991   -0.4641   -0.4737 C   0  0  0  0  0  0  0  0  0  0  0  0
   -3.9126    0.0338    0.6989 C   0  0  0  0  0  0  0  0  0  0  0  0
   -0.1962   -0.5300   -0.3175 C   0  0  0  0  0  0  0  0  0  0  0  0
    0.6953    0.4221   -0.6495 C   0  0  0  0  0  0  0  0  0  0  0  0
    2.1644    0.3042   -0.4739 C   0  0  0  0  0  0  0  0  0  0  0  0
    3.8547    0.7959    1.1021 C   0  0  0  0  0  0  0  0  0  0  0  0
   -2.0393    1.0449    1.0426 H   0  0  0  0  0  0  0  0  0  0  0  0
   -2.1083   -0.6034    1.6504 H   0  0  0  0  0  0  0  0  0  0  0  0
   -1.9228    0.2138   -1.3066 H   0  0  0  0  0  0  0  0  0  0  0  0
   -2.0993   -1.4414   -0.7697 H   0  0  0  0  0  0  0  0  0  0  0  0
   -4.3562    0.3849    1.6353 H   0  0  0  0  0  0  0  0  0  0  0  0
   -4.2905   -0.9731    0.4969 H   0  0  0  0  0  0  0  0  0  0  0  0
    0.3537    1.3683   -1.0590 H   0  0  0  0  0  0  0  0  0  0  0  0
    4.4297    1.4030    0.3964 H   0  0  0  0  0  0  0  0  0  0  0  0
    4.2280   -0.2325    1.1217 H   0  0  0  0  0  0  0  0  0  0  0  0
    3.9589    1.2262    2.1018 H   0  0  0  0  0  0  0  0  0  0  0  0
  1  8  1  0  0  0  0
  2  7  1  0  0  0  0
  3 10  1  0  0  0  0
  3 11  1  0  0  0  0
  4 10  2  0  0  0  0
  5  6  1  0  0  0  0
  5  7  1  0  0  0  0
  5 12  1  0  0  0  0
  5 13  1  0  0  0  0
  6  8  1  0  0  0  0
  6 14  1  0  0  0  0
  6 15  1  0  0  0  0
  7 16  1  0  0  0  0
  7 17  1  0  0  0  0
  8  9  2  0  0  0  0
  9 10  1  0  0  0  0
  9 18  1  0  0  0  0
 11 19  1  0  0  0  0
 11 20  1  0  0  0  0
 11 21  1  0  0  0  0
M  END
> <PUBCHEM_COMPOUND_CID>
10891541

> <PUBCHEM_CONFORMER_RMSD>
0.6

> <PUBCHEM_CONFORMER_DIVERSEORDER>
1
80
83
23
45
66
49
35
17
82
36
41
79
46
51
71
67
53
54
3
81
63
13
25
55
56
75
52
60
24
48
31
33
72
64
77
10
47
5
73
57
7
61
84
74
58
16
28
76
8
70
39
50
78
30
22
34
68
9
19
38
62
6
42
20
69
40
29
12
15
59
65
18
26
43
14
27
37
21
32
11
44
2
4

> <PUBCHEM_MMFF94_PARTIAL_CHARGES>
11
1 -0.09
10 0.71
11 0.28
18 0.15
2 -0.29
3 -0.43
4 -0.57
6 0.14
7 0.29
8 -0.05
9 -0.14

> <PUBCHEM_EFFECTIVE_ROTOR_COUNT>
5

> <PUBCHEM_PHARMACOPHORE_FEATURES>
2
1 1 hydrophobe
1 4 acceptor

> <PUBCHEM_HEAVY_ATOM_COUNT>
11

> <PUBCHEM_ATOM_DEF_STEREO_COUNT>
0

> <PUBCHEM_ATOM_UDEF_STEREO_COUNT>
0

> <PUBCHEM_BOND_DEF_STEREO_COUNT>
1

> <PUBCHEM_BOND_UDEF_STEREO_COUNT>
0

> <PUBCHEM_ISOTOPIC_ATOM_COUNT>
0

> <PUBCHEM_COMPONENT_COUNT>
1

> <PUBCHEM_CACTVS_TAUTO_COUNT>
1

> <PUBCHEM_CONFORMER_ID>
00A6311500000001

> <PUBCHEM_MMFF94_ENERGY>
21.9732

> <PUBCHEM_FEATURE_SELFOVERLAP>
10.148

> <PUBCHEM_SHAPE_FINGERPRINT>
10980938 120 18334860468113008483
11543360 7 15913324706541365133
12932764 1 18342741789035775415
14897335 6 18411694379432823575
15775835 57 18342734130650189731
170605 34 17989209243682513671
18186145 218 18130799957403364471
20112054 13 18334571377800416972
20645477 70 16917078736793125046
20711985 344 9510370410454872798
21293036 1 11887954375716032304
23382010 3 14979949302670072911
23402539 116 18130211753174195916
23402655 69 15698007301593085049
276578 36 18335423465184521690
305870 269 18410288090669594155
42 15 14129059197381174969
449060 23 11025794318859716281
7364860 26 18198624328495471567
81539 233 18186805746859671063

> <PUBCHEM_SHAPE_MULTIPOLES>
228.44
7.56
1.7
1.13
4.62
1.5
0.06
-3.98
1.3
-0.45
0.1
-0.55
-0.13
0.52

> <PUBCHEM_SHAPE_SELFOVERLAP>
399.78

> <PUBCHEM_SHAPE_VOLUME>
153.4

> <PUBCHEM_COORDINATE_TYPE>
2
5
10

$$$$
