261859
  -OEChem-02172602363D

 52 54  0     0  0  0  0  0  0999 V2000
   -0.3250   -0.2940    0.0118 O   0  0  0  0  0  0  0  0  0  0  0  0
   -1.9946   -2.4039    0.3328 O   0  0  0  0  0  0  0  0  0  0  0  0
   -4.7271   -2.0621    0.2475 O   0  0  0  0  0  0  0  0  0  0  0  0
   -5.7969    0.4419   -0.1658 O   0  0  0  0  0  0  0  0  0  0  0  0
   -4.1689    2.6061   -0.4956 O   0  0  0  0  0  0  0  0  0  0  0  0
    4.1495   -2.4230   -0.8132 O   0  0  0  0  0  0  0  0  0  0  0  0
    5.1398    1.9124    0.9650 O   0  0  0  0  0  0  0  0  0  0  0  0
   -1.7140    3.4857   -0.6068 O   0  0  0  0  0  0  0  0  0  0  0  0
    5.9923   -0.5945    0.1525 O   0  0  0  0  0  0  0  0  0  0  0  0
   -2.2184    1.2049   -0.2497 C   0  0  0  0  0  0  0  0  0  0  0  0
   -1.6761   -0.0620   -0.0406 C   0  0  0  0  0  0  0  0  0  0  0  0
    0.5365    0.7792   -0.1579 C   0  0  0  0  0  0  0  0  0  0  0  0
   -2.5180   -1.1617    0.1272 C   0  0  0  0  0  0  0  0  0  0  0  0
    1.9665    0.4192   -0.0767 C   0  0  0  0  0  0  0  0  0  0  0  0
   -3.6031    1.3824   -0.2930 C   0  0  0  0  0  0  0  0  0  0  0  0
   -1.3076    2.3470   -0.4218 C   0  0  0  0  0  0  0  0  0  0  0  0
   -3.9017   -0.9887    0.0845 C   0  0  0  0  0  0  0  0  0  0  0  0
   -4.4429    0.2807   -0.1251 C   0  0  0  0  0  0  0  0  0  0  0  0
    0.1367    2.0449   -0.3590 C   0  0  0  0  0  0  0  0  0  0  0  0
    2.8959    1.3416    0.4101 C   0  0  0  0  0  0  0  0  0  0  0  0
    2.3963   -0.8456   -0.4863 C   0  0  0  0  0  0  0  0  0  0  0  0
    3.7469   -1.1857   -0.4095 C   0  0  0  0  0  0  0  0  0  0  0  0
    4.2465    1.0016    0.4869 C   0  0  0  0  0  0  0  0  0  0  0  0
    4.6721   -0.2621    0.0772 C   0  0  0  0  0  0  0  0  0  0  0  0
   -1.7325   -3.1950   -0.8239 C   0  0  0  0  0  0  0  0  0  0  0  0
   -4.6245   -2.7757    1.4772 C   0  0  0  0  0  0  0  0  0  0  0  0
   -6.4520    0.7197    1.0692 C   0  0  0  0  0  0  0  0  0  0  0  0
    3.1403   -3.3068   -1.2977 C   0  0  0  0  0  0  0  0  0  0  0  0
    5.7441    2.7877    0.0149 C   0  0  0  0  0  0  0  0  0  0  0  0
    6.4402   -1.1941    1.3659 C   0  0  0  0  0  0  0  0  0  0  0  0
    0.8120    2.8799   -0.5041 H   0  0  0  0  0  0  0  0  0  0  0  0
    2.5942    2.3263    0.7588 H   0  0  0  0  0  0  0  0  0  0  0  0
    1.6448   -1.5278   -0.8693 H   0  0  0  0  0  0  0  0  0  0  0  0
   -3.4873    3.2875   -0.5972 H   0  0  0  0  0  0  0  0  0  0  0  0
   -0.9936   -2.7057   -1.4662 H   0  0  0  0  0  0  0  0  0  0  0  0
   -2.6549   -3.3774   -1.3843 H   0  0  0  0  0  0  0  0  0  0  0  0
   -1.3274   -4.1562   -0.4962 H   0  0  0  0  0  0  0  0  0  0  0  0
   -4.2445   -2.1489    2.2917 H   0  0  0  0  0  0  0  0  0  0  0  0
   -3.9906   -3.6571    1.3473 H   0  0  0  0  0  0  0  0  0  0  0  0
   -5.6266   -3.1183    1.7516 H   0  0  0  0  0  0  0  0  0  0  0  0
   -6.3070   -0.1018    1.7776 H   0  0  0  0  0  0  0  0  0  0  0  0
   -7.5224    0.8254    0.8727 H   0  0  0  0  0  0  0  0  0  0  0  0
   -6.0823    1.6554    1.5004 H   0  0  0  0  0  0  0  0  0  0  0  0
    2.6694   -2.9222   -2.2089 H   0  0  0  0  0  0  0  0  0  0  0  0
    2.4090   -3.5518   -0.5197 H   0  0  0  0  0  0  0  0  0  0  0  0
    3.6376   -4.2437   -1.5702 H   0  0  0  0  0  0  0  0  0  0  0  0
    4.9837    3.4013   -0.4788 H   0  0  0  0  0  0  0  0  0  0  0  0
    6.3090    2.2180   -0.7296 H   0  0  0  0  0  0  0  0  0  0  0  0
    6.4342    3.4475    0.5476 H   0  0  0  0  0  0  0  0  0  0  0  0
    5.9162   -2.1382    1.5459 H   0  0  0  0  0  0  0  0  0  0  0  0
    6.2893   -0.5143    2.2104 H   0  0  0  0  0  0  0  0  0  0  0  0
    7.5097   -1.4010    1.2712 H   0  0  0  0  0  0  0  0  0  0  0  0
  1 11  1  0  0  0  0
  1 12  1  0  0  0  0
  2 13  1  0  0  0  0
  2 25  1  0  0  0  0
  3 17  1  0  0  0  0
  3 26  1  0  0  0  0
  4 18  1  0  0  0  0
  4 27  1  0  0  0  0
  5 15  1  0  0  0  0
  5 34  1  0  0  0  0
  6 22  1  0  0  0  0
  6 28  1  0  0  0  0
  7 23  1  0  0  0  0
  7 29  1  0  0  0  0
  8 16  2  0  0  0  0
  9 24  1  0  0  0  0
  9 30  1  0  0  0  0
 10 11  1  0  0  0  0
 10 15  2  0  0  0  0
 10 16  1  0  0  0  0
 11 13  2  0  0  0  0
 12 14  1  0  0  0  0
 12 19  2  0  0  0  0
 13 17  1  0  0  0  0
 14 20  2  0  0  0  0
 14 21  1  0  0  0  0
 15 18  1  0  0  0  0
 16 19  1  0  0  0  0
 17 18  2  0  0  0  0
 19 31  1  0  0  0  0
 20 23  1  0  0  0  0
 20 32  1  0  0  0  0
 21 22  2  0  0  0  0
 21 33  1  0  0  0  0
 22 24  1  0  0  0  0
 23 24  2  0  0  0  0
 25 35  1  0  0  0  0
 25 36  1  0  0  0  0
 25 37  1  0  0  0  0
 26 38  1  0  0  0  0
 26 39  1  0  0  0  0
 26 40  1  0  0  0  0
 27 41  1  0  0  0  0
 27 42  1  0  0  0  0
 27 43  1  0  0  0  0
 28 44  1  0  0  0  0
 28 45  1  0  0  0  0
 28 46  1  0  0  0  0
 29 47  1  0  0  0  0
 29 48  1  0  0  0  0
 29 49  1  0  0  0  0
 30 50  1  0  0  0  0
 30 51  1  0  0  0  0
 30 52  1  0  0  0  0
M  END
> <PUBCHEM_COMPOUND_CID>
261859

> <PUBCHEM_CONFORMER_RMSD>
0.8

> <PUBCHEM_CONFORMER_DIVERSEORDER>
1
4
2
7
5
11
6
3
8
10
9

> <PUBCHEM_MMFF94_PARTIAL_CHARGES>
34
1 -0.16
10 0.09
11 0.08
12 0.05
13 0.08
14 0.03
15 0.08
16 0.47
17 0.08
18 0.08
19 -0.14
2 -0.36
20 -0.15
21 -0.15
22 0.08
23 0.08
24 0.08
25 0.28
26 0.28
27 0.28
28 0.28
29 0.28
3 -0.36
30 0.28
31 0.15
32 0.15
33 0.15
34 0.45
4 -0.36
5 -0.53
6 -0.36
7 -0.36
8 -0.57
9 -0.36

> <PUBCHEM_EFFECTIVE_ROTOR_COUNT>
7

> <PUBCHEM_PHARMACOPHORE_FEATURES>
12
1 1 acceptor
1 2 acceptor
1 3 acceptor
1 4 acceptor
1 5 donor
1 6 acceptor
1 7 acceptor
1 8 acceptor
1 9 acceptor
6 1 10 11 12 16 19 rings
6 10 11 13 15 17 18 rings
6 14 20 21 22 23 24 rings

> <PUBCHEM_HEAVY_ATOM_COUNT>
30

> <PUBCHEM_ATOM_DEF_STEREO_COUNT>
0

> <PUBCHEM_ATOM_UDEF_STEREO_COUNT>
0

> <PUBCHEM_BOND_DEF_STEREO_COUNT>
0

> <PUBCHEM_BOND_UDEF_STEREO_COUNT>
0

> <PUBCHEM_ISOTOPIC_ATOM_COUNT>
0

> <PUBCHEM_COMPONENT_COUNT>
1

> <PUBCHEM_CACTVS_TAUTO_COUNT>
4

> <PUBCHEM_CONFORMER_ID>
0003FEE300000001

> <PUBCHEM_MMFF94_ENERGY>
153.5222

> <PUBCHEM_FEATURE_SELFOVERLAP>
60.957

> <PUBCHEM_SHAPE_FINGERPRINT>
10319926 262 18337934720257671400
10835480 77 18411129247246139061
10906281 52 18115602585220840512
11524674 6 17704067387066620959
12236239 1 17240204300464235989
13140716 1 18264782124634805249
13402501 40 18341613676783211334
13533116 47 17917430891169568440
14341114 176 18408885144446156904
14617045 38 18341058436686372630
14790565 3 17834116347417592993
15042514 8 18334296504821358633
15196674 1 18410011061010051112
15361156 5 18335714865851791550
15961568 22 18040998488410801692
16110190 28 18338803419878658025
17349148 13 16081084853718408832
17844677 252 18410015407834167336
1813 80 17313384543250639316
19141452 34 18342176695856808559
21033648 29 17988635346163261395
21267235 1 18333737909748666505
21279426 13 18123189005025211821
21859007 373 17751063735516739317
22122407 14 16415484878292513161
23559900 14 18269271262526826966
239999 70 18131638851201895646
3004659 81 18333734598634615630
335352 9 18407760344530568149
3383291 50 18114467859721006899
350125 39 18412543232975209236
3882209 13 17190065737447550934
4015057 19 18200294607059630861
4073 2 18334017223903069099
4093350 32 16773520958047119614
4214541 1 18410009914296351388
5104073 3 18411697695152877600
5265222 85 18340213011545760502
59755656 215 18262236608681200567
9709674 26 18341050697081367766
9995097 60 18343019969535303438

> <PUBCHEM_SHAPE_MULTIPOLES>
564.56
15.19
3.79
0.97
5.35
0.8
-0.16
0.41
-4.45
-0.14
0.74
0.17
0.46
1.6

> <PUBCHEM_SHAPE_SELFOVERLAP>
1225.34

> <PUBCHEM_SHAPE_VOLUME>
310.4

> <PUBCHEM_COORDINATE_TYPE>
2
5
10

$$$$
