25087713
  -OEChem-02172602293D

 62 64  0     1  0  0  0  0  0999 V2000
    0.6449    1.2877   -0.4166 O   0  0  0  0  0  0  0  0  0  0  0  0
    2.6762   -0.5311   -0.9224 O   0  0  0  0  0  0  0  0  0  0  0  0
    1.4147   -2.4767   -1.4038 O   0  0  0  0  0  0  0  0  0  0  0  0
    3.8542    2.7305   -1.4327 O   0  0  0  0  0  0  0  0  0  0  0  0
    3.3086    4.0244    1.0939 O   0  0  0  0  0  0  0  0  0  0  0  0
   -1.0448    2.0360    1.0077 O   0  0  0  0  0  0  0  0  0  0  0  0
    0.4105    4.4234    1.4440 O   0  0  0  0  0  0  0  0  0  0  0  0
    3.9529   -3.9287   -1.1042 O   0  0  0  0  0  0  0  0  0  0  0  0
    3.0055   -1.7629    1.6790 O   0  0  0  0  0  0  0  0  0  0  0  0
    1.0351   -3.6700    2.0451 O   0  0  0  0  0  0  0  0  0  0  0  0
   -1.6563   -0.5338    1.8800 O   0  0  0  0  0  0  0  0  0  0  0  0
    1.7158    1.6234   -1.3006 C   0  0  1  0  0  0  0  0  0  0  0  0
    2.8318    2.3276   -0.5252 C   0  0  2  0  0  0  0  0  0  0  0  0
    2.2919    3.5567    0.2063 C   0  0  1  0  0  0  0  0  0  0  0  0
    1.0346    3.2166    1.0064 C   0  0  2  0  0  0  0  0  0  0  0  0
    0.0292    2.4380    0.1580 C   0  0  1  0  0  0  0  0  0  0  0  0
    2.2045    0.3292   -1.9433 C   0  0  0  0  0  0  0  0  0  0  0  0
    2.7188   -1.8878   -1.3537 C   0  0  2  0  0  0  0  0  0  0  0  0
    3.6684   -2.6920   -0.4530 C   0  0  1  0  0  0  0  0  0  0  0  0
    3.0580   -2.9730    0.9244 C   0  0  2  0  0  0  0  0  0  0  0  0
    1.6426   -3.5322    0.7681 C   0  0  2  0  0  0  0  0  0  0  0  0
    0.8031   -2.6281   -0.1253 C   0  0  0  0  0  0  0  0  0  0  0  0
   -2.0550    1.3231    0.4222 C   0  0  0  0  0  0  0  0  0  0  0  0
   -2.3595    0.0346    0.8614 C   0  0  0  0  0  0  0  0  0  0  0  0
   -2.7819    1.8941   -0.6224 C   0  0  0  0  0  0  0  0  0  0  0  0
   -3.3910   -0.6831    0.2555 C   0  0  0  0  0  0  0  0  0  0  0  0
   -3.8131    1.1766   -1.2281 C   0  0  0  0  0  0  0  0  0  0  0  0
   -4.1177   -0.1120   -0.7893 C   0  0  0  0  0  0  0  0  0  0  0  0
   -5.2207   -0.8789   -1.4365 C   0  0  0  0  0  0  0  0  0  0  0  0
   -2.0307   -1.8541    2.2685 C   0  0  0  0  0  0  0  0  0  0  0  0
   -6.5582   -0.6575   -0.7788 C   0  0  0  0  0  0  0  0  0  0  0  0
   -7.2726   -1.6199   -0.1845 C   0  0  0  0  0  0  0  0  0  0  0  0
    1.3344    2.2700   -2.1021 H   0  0  0  0  0  0  0  0  0  0  0  0
    3.2923    1.6510    0.2044 H   0  0  0  0  0  0  0  0  0  0  0  0
    2.0998    4.3762   -0.4962 H   0  0  0  0  0  0  0  0  0  0  0  0
    1.2947    2.6499    1.9084 H   0  0  0  0  0  0  0  0  0  0  0  0
   -0.3596    3.0880   -0.6368 H   0  0  0  0  0  0  0  0  0  0  0  0
    3.0084    0.5171   -2.6631 H   0  0  0  0  0  0  0  0  0  0  0  0
    1.3626   -0.1364   -2.4706 H   0  0  0  0  0  0  0  0  0  0  0  0
    3.1148   -1.9258   -2.3771 H   0  0  0  0  0  0  0  0  0  0  0  0
    4.6095   -2.1404   -0.3412 H   0  0  0  0  0  0  0  0  0  0  0  0
    3.6661   -3.6856    1.4936 H   0  0  0  0  0  0  0  0  0  0  0  0
    1.7075   -4.5292    0.3152 H   0  0  0  0  0  0  0  0  0  0  0  0
   -0.1865   -3.0714   -0.2794 H   0  0  0  0  0  0  0  0  0  0  0  0
    0.6302   -1.6465    0.3311 H   0  0  0  0  0  0  0  0  0  0  0  0
    3.4564    3.3301   -2.0867 H   0  0  0  0  0  0  0  0  0  0  0  0
    3.4872    3.3249    1.7453 H   0  0  0  0  0  0  0  0  0  0  0  0
    0.1713    4.9420    0.6569 H   0  0  0  0  0  0  0  0  0  0  0  0
    4.5752   -4.4195   -0.5407 H   0  0  0  0  0  0  0  0  0  0  0  0
    3.9161   -1.4337    1.7679 H   0  0  0  0  0  0  0  0  0  0  0  0
    0.1490   -4.0462    1.9087 H   0  0  0  0  0  0  0  0  0  0  0  0
   -2.5738    2.9032   -0.9664 H   0  0  0  0  0  0  0  0  0  0  0  0
   -3.6745   -1.6862    0.5559 H   0  0  0  0  0  0  0  0  0  0  0  0
   -4.3753    1.6352   -2.0374 H   0  0  0  0  0  0  0  0  0  0  0  0
   -5.3030   -0.5908   -2.4926 H   0  0  0  0  0  0  0  0  0  0  0  0
   -4.9674   -1.9474   -1.4533 H   0  0  0  0  0  0  0  0  0  0  0  0
   -1.3600   -2.1529    3.0807 H   0  0  0  0  0  0  0  0  0  0  0  0
   -1.8891   -2.5746    1.4568 H   0  0  0  0  0  0  0  0  0  0  0  0
   -3.0488   -1.8797    2.6722 H   0  0  0  0  0  0  0  0  0  0  0  0
   -6.9685    0.3492   -0.8078 H   0  0  0  0  0  0  0  0  0  0  0  0
   -8.2338   -1.3936    0.2638 H   0  0  0  0  0  0  0  0  0  0  0  0
   -6.9141   -2.6420   -0.1333 H   0  0  0  0  0  0  0  0  0  0  0  0
  1 12  1  0  0  0  0
  1 16  1  0  0  0  0
  2 17  1  0  0  0  0
  2 18  1  0  0  0  0
  3 18  1  0  0  0  0
  3 22  1  0  0  0  0
  4 13  1  0  0  0  0
  4 46  1  0  0  0  0
  5 14  1  0  0  0  0
  5 47  1  0  0  0  0
  6 16  1  0  0  0  0
  6 23  1  0  0  0  0
  7 15  1  0  0  0  0
  7 48  1  0  0  0  0
  8 19  1  0  0  0  0
  8 49  1  0  0  0  0
  9 20  1  0  0  0  0
  9 50  1  0  0  0  0
 10 21  1  0  0  0  0
 10 51  1  0  0  0  0
 11 24  1  0  0  0  0
 11 30  1  0  0  0  0
 12 13  1  0  0  0  0
 12 17  1  0  0  0  0
 12 33  1  0  0  0  0
 13 14  1  0  0  0  0
 13 34  1  0  0  0  0
 14 15  1  0  0  0  0
 14 35  1  0  0  0  0
 15 16  1  0  0  0  0
 15 36  1  0  0  0  0
 16 37  1  0  0  0  0
 17 38  1  0  0  0  0
 17 39  1  0  0  0  0
 18 19  1  0  0  0  0
 18 40  1  0  0  0  0
 19 20  1  0  0  0  0
 19 41  1  0  0  0  0
 20 21  1  0  0  0  0
 20 42  1  0  0  0  0
 21 22  1  0  0  0  0
 21 43  1  0  0  0  0
 22 44  1  0  0  0  0
 22 45  1  0  0  0  0
 23 24  2  0  0  0  0
 23 25  1  0  0  0  0
 24 26  1  0  0  0  0
 25 27  2  0  0  0  0
 25 52  1  0  0  0  0
 26 28  2  0  0  0  0
 26 53  1  0  0  0  0
 27 28  1  0  0  0  0
 27 54  1  0  0  0  0
 28 29  1  0  0  0  0
 29 31  1  0  0  0  0
 29 55  1  0  0  0  0
 29 56  1  0  0  0  0
 30 57  1  0  0  0  0
 30 58  1  0  0  0  0
 30 59  1  0  0  0  0
 31 32  2  0  0  0  0
 31 60  1  0  0  0  0
 32 61  1  0  0  0  0
 32 62  1  0  0  0  0
M  END
> <PUBCHEM_COMPOUND_CID>
25087713

> <PUBCHEM_CONFORMER_RMSD>
1

> <PUBCHEM_CONFORMER_DIVERSEORDER>
3
35
56
81
139
108
115
168
24
165
65
54
117
109
96
152
37
149
146
172
123
145
134
160
105
97
95
88
82
63
176
131
111
122
89
61
67
43
132
161
80
137
57
170
151
171
129
179
83
69
104
163
101
119
110
150
70
175
126
72
30
62
33
90
6
169
154
162
94
141
58
74
13
174
91
107
25
140
48
18
66
143
76
86
93
138
180
167
19
87
118
84
177
2
79
173
153
31
78
52
124
28
49
16
77
34
156
85
103
125
133
59
55
47
102
51
127
113
60
32
116
73
22
26
1
106
159
64
11
178
135
98
39
41
38
158
128
21
130
17
114
20
36
147
15
27
45
142
29
71
40
4
53
12
42
10
148
164
155
100
136
50
144
166
68
181
120
44
121
75
46
112
8
14
7
157
23
5
99
9
92

> <PUBCHEM_MMFF94_PARTIAL_CHARGES>
44
1 -0.56
10 -0.68
11 -0.36
12 0.28
13 0.28
14 0.28
15 0.28
16 0.56
17 0.28
18 0.56
19 0.28
2 -0.56
20 0.28
21 0.28
22 0.28
23 0.08
24 0.08
25 -0.15
26 -0.15
27 -0.15
28 -0.14
29 0.28
3 -0.56
30 0.28
31 -0.29
32 -0.3
4 -0.68
46 0.4
47 0.4
48 0.4
49 0.4
5 -0.68
50 0.4
51 0.4
52 0.15
53 0.15
54 0.15
6 -0.36
60 0.15
61 0.15
62 0.15
7 -0.68
8 -0.68
9 -0.68

> <PUBCHEM_EFFECTIVE_ROTOR_COUNT>
10.4

> <PUBCHEM_PHARMACOPHORE_FEATURES>
21
1 1 acceptor
1 10 acceptor
1 10 donor
1 11 acceptor
1 2 acceptor
1 3 acceptor
1 32 hydrophobe
1 4 acceptor
1 4 donor
1 5 acceptor
1 5 donor
1 6 acceptor
1 7 acceptor
1 7 donor
1 8 acceptor
1 8 donor
1 9 acceptor
1 9 donor
6 1 12 13 14 15 16 rings
6 23 24 25 26 27 28 rings
6 3 18 19 20 21 22 rings

> <PUBCHEM_HEAVY_ATOM_COUNT>
32

> <PUBCHEM_ATOM_DEF_STEREO_COUNT>
9

> <PUBCHEM_ATOM_UDEF_STEREO_COUNT>
0

> <PUBCHEM_BOND_DEF_STEREO_COUNT>
0

> <PUBCHEM_BOND_UDEF_STEREO_COUNT>
0

> <PUBCHEM_ISOTOPIC_ATOM_COUNT>
0

> <PUBCHEM_COMPONENT_COUNT>
1

> <PUBCHEM_CACTVS_TAUTO_COUNT>
1

> <PUBCHEM_CONFORMER_ID>
017ECEE100000003

> <PUBCHEM_MMFF94_ENERGY>
103.7118

> <PUBCHEM_FEATURE_SELFOVERLAP>
106.702

> <PUBCHEM_SHAPE_FINGERPRINT>
10074138 170 17118851464733321856
114674 6 18338517559598082325
11552529 35 17474103199231302542
11991303 11 17759523666223990196
12156800 1 16409534484508520042
12166972 35 17896040949151077495
12553582 1 17903937560241242032
12597179 24 18044651134361201347
12788726 201 17544766625109159240
13533116 47 18410575106892237837
13911987 19 18049462618414224828
14068700 675 18266457594928240998
14081887 123 17618776960646518834
14114206 34 17830214270295504886
14415360 78 17764890369288281625
15264996 163 17902803959411026325
15324884 4 17542235995971755849
19026451 147 18341612598746627935
20567600 347 18263353862322990945
20775438 99 18193820756164040223
21703447 108 18411127035606792621
23559900 14 18339629037036536249
238 59 18339087097915213159
25222932 49 17985264334007909743
3298306 158 18265331900841971537
35225 105 17476345575817876760
392239 28 18122346784004165754
463206 1 18411698803281001487
5265222 85 17758684733966127445
57527295 17 18337967709421800197
613672 6 17983841295030312191
6669772 16 18264759042884431427
70251023 43 18129678412662016711

> <PUBCHEM_SHAPE_MULTIPOLES>
593.98
10.6
5.89
1.85
20.37
1
-0.38
-5.08
3.99
-8.76
-1.95
-0.43
-0.55
0.37

> <PUBCHEM_SHAPE_SELFOVERLAP>
1240.295

> <PUBCHEM_SHAPE_VOLUME>
332

> <PUBCHEM_COORDINATE_TYPE>
2
5
10

$$$$
