10091373
  -OEChem-02172602523D

 53 55  0     1  0  0  0  0  0999 V2000
    6.0179    0.8955   -0.7485 O   0  0  0  0  0  0  0  0  0  0  0  0
    1.8036    1.1775   -1.4040 O   0  0  0  0  0  0  0  0  0  0  0  0
    4.4033   -0.6801   -1.2456 O   0  0  0  0  0  0  0  0  0  0  0  0
   -1.4944    1.3861    1.5625 O   0  0  0  0  0  0  0  0  0  0  0  0
    2.7220    0.3090    0.5347 N   0  0  0  0  0  0  0  0  0  0  0  0
   -0.5988    0.7978   -0.4992 N   0  0  0  0  0  0  0  0  0  0  0  0
   -5.9098    1.9583    0.5689 N   0  0  0  0  0  0  0  0  0  0  0  0
    4.0025    0.9971    0.4351 C   0  0  1  0  0  0  0  0  0  0  0  0
    4.6293    0.8511    1.8169 C   0  0  0  0  0  0  0  0  0  0  0  0
    4.0477   -0.4627    2.3333 C   0  0  0  0  0  0  0  0  0  0  0  0
    2.6343   -0.4644    1.7707 C   0  0  0  0  0  0  0  0  0  0  0  0
    1.6922    0.5177   -0.3694 C   0  0  0  0  0  0  0  0  0  0  0  0
    0.3792   -0.1362   -0.0206 C   0  0  2  0  0  0  0  0  0  0  0  0
    4.8034    0.2902   -0.6168 C   0  0  0  0  0  0  0  0  0  0  0  0
    0.2806   -1.5042   -0.6825 C   0  0  0  0  0  0  0  0  0  0  0  0
   -1.0288   -2.1899   -0.3786 C   0  0  0  0  0  0  0  0  0  0  0  0
   -1.4683    1.4933    0.3391 C   0  0  0  0  0  0  0  0  0  0  0  0
   -2.4050    2.3975   -0.4429 C   0  0  0  0  0  0  0  0  0  0  0  0
   -2.1277   -1.9981   -1.2161 C   0  0  0  0  0  0  0  0  0  0  0  0
   -1.1405   -3.0153    0.7405 C   0  0  0  0  0  0  0  0  0  0  0  0
    6.8899    0.3180   -1.7254 C   0  0  0  0  0  0  0  0  0  0  0  0
   -3.8441    2.0399   -0.2425 C   0  0  0  0  0  0  0  0  0  0  0  0
   -3.3380   -2.6318   -0.9347 C   0  0  0  0  0  0  0  0  0  0  0  0
   -2.3508   -3.6491    1.0218 C   0  0  0  0  0  0  0  0  0  0  0  0
   -3.4495   -3.4574    0.1844 C   0  0  0  0  0  0  0  0  0  0  0  0
   -4.6796    2.5398    0.7319 C   0  0  0  0  0  0  0  0  0  0  0  0
   -4.5985    1.1258   -1.0184 C   0  0  0  0  0  0  0  0  0  0  0  0
   -5.8722    1.0948   -0.4946 C   0  0  0  0  0  0  0  0  0  0  0  0
    3.8490    2.0375    0.1306 H   0  0  0  0  0  0  0  0  0  0  0  0
    5.7230    0.8456    1.8225 H   0  0  0  0  0  0  0  0  0  0  0  0
    4.2907    1.6711    2.4621 H   0  0  0  0  0  0  0  0  0  0  0  0
    4.0670   -0.5388    3.4240 H   0  0  0  0  0  0  0  0  0  0  0  0
    4.6156   -1.3061    1.9225 H   0  0  0  0  0  0  0  0  0  0  0  0
    1.9507    0.0563    2.4502 H   0  0  0  0  0  0  0  0  0  0  0  0
    2.2593   -1.4733    1.5823 H   0  0  0  0  0  0  0  0  0  0  0  0
    0.2545   -0.2319    1.0605 H   0  0  0  0  0  0  0  0  0  0  0  0
    1.1101   -2.1497   -0.3669 H   0  0  0  0  0  0  0  0  0  0  0  0
    0.3923   -1.4138   -1.7721 H   0  0  0  0  0  0  0  0  0  0  0  0
   -0.6303    0.9720   -1.4998 H   0  0  0  0  0  0  0  0  0  0  0  0
   -2.2210    3.4249   -0.1055 H   0  0  0  0  0  0  0  0  0  0  0  0
   -2.1723    2.3793   -1.5139 H   0  0  0  0  0  0  0  0  0  0  0  0
   -2.0546   -1.3588   -2.0918 H   0  0  0  0  0  0  0  0  0  0  0  0
   -0.2918   -3.1700    1.4016 H   0  0  0  0  0  0  0  0  0  0  0  0
    7.1182   -0.7194   -1.4626 H   0  0  0  0  0  0  0  0  0  0  0  0
    6.4356    0.3745   -2.7191 H   0  0  0  0  0  0  0  0  0  0  0  0
    7.8206    0.8915   -1.7318 H   0  0  0  0  0  0  0  0  0  0  0  0
   -4.1939   -2.4821   -1.5863 H   0  0  0  0  0  0  0  0  0  0  0  0
   -2.4379   -4.2910    1.8934 H   0  0  0  0  0  0  0  0  0  0  0  0
   -4.3921   -3.9502    0.4037 H   0  0  0  0  0  0  0  0  0  0  0  0
   -4.5111    3.2546    1.5254 H   0  0  0  0  0  0  0  0  0  0  0  0
   -4.2562    0.5519   -1.8683 H   0  0  0  0  0  0  0  0  0  0  0  0
   -6.7205    2.1384    1.1448 H   0  0  0  0  0  0  0  0  0  0  0  0
   -6.7520    0.5371   -0.7832 H   0  0  0  0  0  0  0  0  0  0  0  0
  1 14  1  0  0  0  0
  1 21  1  0  0  0  0
  2 12  2  0  0  0  0
  3 14  2  0  0  0  0
  4 17  2  0  0  0  0
  5  8  1  0  0  0  0
  5 11  1  0  0  0  0
  5 12  1  0  0  0  0
  6 13  1  0  0  0  0
  6 17  1  0  0  0  0
  6 39  1  0  0  0  0
  7 26  1  0  0  0  0
  7 28  1  0  0  0  0
  7 52  1  0  0  0  0
  8  9  1  0  0  0  0
  8 14  1  0  0  0  0
  8 29  1  0  0  0  0
  9 10  1  0  0  0  0
  9 30  1  0  0  0  0
  9 31  1  0  0  0  0
 10 11  1  0  0  0  0
 10 32  1  0  0  0  0
 10 33  1  0  0  0  0
 11 34  1  0  0  0  0
 11 35  1  0  0  0  0
 12 13  1  0  0  0  0
 13 15  1  0  0  0  0
 13 36  1  0  0  0  0
 15 16  1  0  0  0  0
 15 37  1  0  0  0  0
 15 38  1  0  0  0  0
 16 19  2  0  0  0  0
 16 20  1  0  0  0  0
 17 18  1  0  0  0  0
 18 22  1  0  0  0  0
 18 40  1  0  0  0  0
 18 41  1  0  0  0  0
 19 23  1  0  0  0  0
 19 42  1  0  0  0  0
 20 24  2  0  0  0  0
 20 43  1  0  0  0  0
 21 44  1  0  0  0  0
 21 45  1  0  0  0  0
 21 46  1  0  0  0  0
 22 26  2  0  0  0  0
 22 27  1  0  0  0  0
 23 25  2  0  0  0  0
 23 47  1  0  0  0  0
 24 25  1  0  0  0  0
 24 48  1  0  0  0  0
 25 49  1  0  0  0  0
 26 50  1  0  0  0  0
 27 28  2  0  0  0  0
 27 51  1  0  0  0  0
 28 53  1  0  0  0  0
M  END
> <PUBCHEM_COMPOUND_CID>
10091373

> <PUBCHEM_CONFORMER_RMSD>
1.2

> <PUBCHEM_CONFORMER_DIVERSEORDER>
1
91
110
103
82
33
10
15
68
50
81
63
117
76
18
49
42
39
65
60
38
79
87
90
108
84
54
105
115
119
13
5
93
24
71
19
74
73
77
113
22
62
57
11
43
118
85
96
44
14
9
75
72
32
3
59
111
48
34
97
86
36
78
12
8
53
40
56
120
17
27
35
25
114
112
98
69
92
64
4
61
102
83
21
116
121
26
6
20
88
52
28
58
106
101
67
104
7
37
41
55
46
30
95
16
2
29
80
89
94
109
107
70
31
45
47
51
99
100
23
66

> <PUBCHEM_MMFF94_PARTIAL_CHARGES>
36
1 -0.43
11 0.3
12 0.57
13 0.36
14 0.66
15 0.14
16 -0.14
17 0.57
18 0.24
19 -0.15
2 -0.57
20 -0.15
21 0.28
22 -0.18
23 -0.15
24 -0.15
25 -0.15
26 -0.3
27 -0.15
28 -0.3
3 -0.57
39 0.37
4 -0.57
42 0.15
43 0.15
47 0.15
48 0.15
49 0.15
5 -0.66
50 0.15
51 0.15
52 0.27
53 0.15
6 -0.73
7 0.03
8 0.36

> <PUBCHEM_EFFECTIVE_ROTOR_COUNT>
11

> <PUBCHEM_PHARMACOPHORE_FEATURES>
9
1 2 acceptor
1 3 acceptor
1 4 acceptor
1 6 donor
1 7 cation
1 7 donor
5 5 8 9 10 11 rings
5 7 22 26 27 28 rings
6 16 19 20 23 24 25 rings

> <PUBCHEM_HEAVY_ATOM_COUNT>
28

> <PUBCHEM_ATOM_DEF_STEREO_COUNT>
2

> <PUBCHEM_ATOM_UDEF_STEREO_COUNT>
0

> <PUBCHEM_BOND_DEF_STEREO_COUNT>
0

> <PUBCHEM_BOND_UDEF_STEREO_COUNT>
0

> <PUBCHEM_ISOTOPIC_ATOM_COUNT>
0

> <PUBCHEM_COMPONENT_COUNT>
1

> <PUBCHEM_CACTVS_TAUTO_COUNT>
2

> <PUBCHEM_CONFORMER_ID>
0099FB6D00000001

> <PUBCHEM_MMFF94_ENERGY>
57.7782

> <PUBCHEM_FEATURE_SELFOVERLAP>
45.671

> <PUBCHEM_SHAPE_FINGERPRINT>
1100329 8 18409728504176978757
11578080 2 16843865663588123219
12616971 3 17241031151057846112
12788726 201 18262796409880515546
13052359 8 18335974338080108267
13911987 19 18261101921287549877
14840074 17 18040435456266886741
14931854 50 18268967892392502231
15629462 23 16557924298783237760
16752209 62 18339355383195388550
21033648 29 17774711065523561538
21236236 1 18341051908299016527
21792961 116 17417546757030517852
22182313 1 18059593402740871015
23558518 356 17753625825173917756
23559900 14 18131069342501032036
23598288 3 18194407912003652055
25147074 1 17821717348211689938
25269216 80 18044681873901543046
4058900 60 18051983523935762529
4073 2 18412545444798710908
4340502 62 18270678667686355585
5104073 3 18192121959227117000
5171179 24 17557975423513740753
5486654 2 18340767057731634229
5912855 24 17968095365087033250
59755656 520 18409730629815875903

> <PUBCHEM_SHAPE_MULTIPOLES>
537.81
13.84
3.76
1.65
10.45
3.25
-0.47
-7.39
2.33
-7.42
-0.49
2.28
0.1
-0.49

> <PUBCHEM_SHAPE_SELFOVERLAP>
1139.818

> <PUBCHEM_SHAPE_VOLUME>
300.7

> <PUBCHEM_COORDINATE_TYPE>
2
5
10

$$$$
