10141654
  -OEChem-02172602533D

 70 72  0     1  0  0  0  0  0999 V2000
    3.0105    4.0480    1.4578 O   0  0  0  0  0  0  0  0  0  0  0  0
    1.6002    2.2734    1.6634 O   0  0  0  0  0  0  0  0  0  0  0  0
    3.5183   -2.0461   -1.3091 O   0  0  0  0  0  0  0  0  0  0  0  0
   -3.1467   -1.3089   -0.1892 O   0  0  0  0  0  0  0  0  0  0  0  0
   -2.1773    0.7101    0.4565 O   0  0  0  0  0  0  0  0  0  0  0  0
   -4.5725    1.3085    2.2039 O   0  0  0  0  0  0  0  0  0  0  0  0
   -4.4816    0.0141   -2.4165 O   0  0  0  0  0  0  0  0  0  0  0  0
    3.0747   -0.4865    0.3515 N   0  0  0  0  0  0  0  0  0  0  0  0
    4.2445   -3.5789    1.0676 N   0  0  0  0  0  0  0  0  0  0  0  0
    4.4075    1.5434    0.1220 C   0  0  0  0  0  0  0  0  0  0  0  0
    5.7312    0.7467    0.1695 C   0  0  0  0  0  0  0  0  0  0  0  0
    4.5944    2.8228   -0.7250 C   0  0  0  0  0  0  0  0  0  0  0  0
    6.3317    0.4832   -1.2113 C   0  0  0  0  0  0  0  0  0  0  0  0
    5.1966    2.5558   -2.1043 C   0  0  0  0  0  0  0  0  0  0  0  0
    6.5009    1.7724   -2.0075 C   0  0  0  0  0  0  0  0  0  0  0  0
    3.2730    0.6740   -0.4539 C   0  0  0  0  0  0  0  0  0  0  0  0
    4.0137    1.9456    1.5557 C   0  0  0  0  0  0  0  0  0  0  0  0
    2.7321    2.7237    1.5690 C   0  0  0  0  0  0  0  0  0  0  0  0
    3.2150   -1.7834   -0.1464 C   0  0  0  0  0  0  0  0  0  0  0  0
    2.9798   -2.8602    0.9086 C   0  0  1  0  0  0  0  0  0  0  0  0
    1.8798   -3.8323    0.4578 C   0  0  0  0  0  0  0  0  0  0  0  0
    0.5383   -3.1595    0.2842 C   0  0  0  0  0  0  0  0  0  0  0  0
    0.1851   -2.6150   -0.9505 C   0  0  0  0  0  0  0  0  0  0  0  0
   -0.3464   -3.0817    1.3597 C   0  0  0  0  0  0  0  0  0  0  0  0
   -1.0531   -1.9926   -1.1097 C   0  0  0  0  0  0  0  0  0  0  0  0
   -1.5845   -2.4592    1.2004 C   0  0  0  0  0  0  0  0  0  0  0  0
   -1.9378   -1.9146   -0.0341 C   0  0  0  0  0  0  0  0  0  0  0  0
   -3.1442    0.0599    0.0890 C   0  0  0  0  0  0  0  0  0  0  0  0
   -4.4941    0.6479   -0.1022 C   0  0  0  0  0  0  0  0  0  0  0  0
   -5.1509    1.2504    0.9709 C   0  0  0  0  0  0  0  0  0  0  0  0
   -5.1053    0.5984   -1.3550 C   0  0  0  0  0  0  0  0  0  0  0  0
   -6.4188    1.8034    0.7910 C   0  0  0  0  0  0  0  0  0  0  0  0
   -6.3732    1.1513   -1.5347 C   0  0  0  0  0  0  0  0  0  0  0  0
   -7.0300    1.7539   -0.4619 C   0  0  0  0  0  0  0  0  0  0  0  0
   -4.8280    0.2215    3.0906 C   0  0  0  0  0  0  0  0  0  0  0  0
   -5.1830    0.0105   -3.6580 C   0  0  0  0  0  0  0  0  0  0  0  0
    5.6148   -0.2032    0.7038 H   0  0  0  0  0  0  0  0  0  0  0  0
    6.4684    1.3198    0.7492 H   0  0  0  0  0  0  0  0  0  0  0  0
    3.6386    3.3363   -0.8814 H   0  0  0  0  0  0  0  0  0  0  0  0
    5.2523    3.5245   -0.1948 H   0  0  0  0  0  0  0  0  0  0  0  0
    5.7024   -0.2169   -1.7714 H   0  0  0  0  0  0  0  0  0  0  0  0
    7.3080   -0.0018   -1.0953 H   0  0  0  0  0  0  0  0  0  0  0  0
    5.3829    3.5104   -2.6103 H   0  0  0  0  0  0  0  0  0  0  0  0
    4.4823    2.0080   -2.7294 H   0  0  0  0  0  0  0  0  0  0  0  0
    7.2648    2.3973   -1.5284 H   0  0  0  0  0  0  0  0  0  0  0  0
    6.8671    1.5393   -3.0138 H   0  0  0  0  0  0  0  0  0  0  0  0
    3.4919    0.3722   -1.4826 H   0  0  0  0  0  0  0  0  0  0  0  0
    2.3194    1.2085   -0.5056 H   0  0  0  0  0  0  0  0  0  0  0  0
    3.9078    1.0909    2.2331 H   0  0  0  0  0  0  0  0  0  0  0  0
    4.7993    2.5611    2.0153 H   0  0  0  0  0  0  0  0  0  0  0  0
    2.7207   -0.3650    1.2952 H   0  0  0  0  0  0  0  0  0  0  0  0
    2.7062   -2.4073    1.8684 H   0  0  0  0  0  0  0  0  0  0  0  0
    2.1958    4.5943    1.4600 H   0  0  0  0  0  0  0  0  0  0  0  0
    1.7768   -4.6474    1.1870 H   0  0  0  0  0  0  0  0  0  0  0  0
    2.1550   -4.3196   -0.4881 H   0  0  0  0  0  0  0  0  0  0  0  0
    4.1307   -4.3224    1.7556 H   0  0  0  0  0  0  0  0  0  0  0  0
    4.9499   -2.9478    1.4464 H   0  0  0  0  0  0  0  0  0  0  0  0
    0.8581   -2.6756   -1.8010 H   0  0  0  0  0  0  0  0  0  0  0  0
   -0.0814   -3.4999    2.3271 H   0  0  0  0  0  0  0  0  0  0  0  0
   -1.3235   -1.5728   -2.0748 H   0  0  0  0  0  0  0  0  0  0  0  0
   -2.2692   -2.4017    2.0423 H   0  0  0  0  0  0  0  0  0  0  0  0
   -6.9364    2.2749    1.6220 H   0  0  0  0  0  0  0  0  0  0  0  0
   -6.9107    1.1510   -2.4766 H   0  0  0  0  0  0  0  0  0  0  0  0
   -8.0172    2.1849   -0.6007 H   0  0  0  0  0  0  0  0  0  0  0  0
   -4.2679    0.3938    4.0137 H   0  0  0  0  0  0  0  0  0  0  0  0
   -4.4965   -0.7252    2.6529 H   0  0  0  0  0  0  0  0  0  0  0  0
   -5.8941    0.1694    3.3330 H   0  0  0  0  0  0  0  0  0  0  0  0
   -6.1092   -0.5713   -3.5976 H   0  0  0  0  0  0  0  0  0  0  0  0
   -5.3504    1.0267   -4.0310 H   0  0  0  0  0  0  0  0  0  0  0  0
   -4.5406   -0.4926   -4.3884 H   0  0  0  0  0  0  0  0  0  0  0  0
  1 18  1  0  0  0  0
  1 53  1  0  0  0  0
  2 18  2  0  0  0  0
  3 19  2  0  0  0  0
  4 27  1  0  0  0  0
  4 28  1  0  0  0  0
  5 28  2  0  0  0  0
  6 30  1  0  0  0  0
  6 35  1  0  0  0  0
  7 31  1  0  0  0  0
  7 36  1  0  0  0  0
  8 16  1  0  0  0  0
  8 19  1  0  0  0  0
  8 51  1  0  0  0  0
  9 20  1  0  0  0  0
  9 56  1  0  0  0  0
  9 57  1  0  0  0  0
 10 11  1  0  0  0  0
 10 12  1  0  0  0  0
 10 16  1  0  0  0  0
 10 17  1  0  0  0  0
 11 13  1  0  0  0  0
 11 37  1  0  0  0  0
 11 38  1  0  0  0  0
 12 14  1  0  0  0  0
 12 39  1  0  0  0  0
 12 40  1  0  0  0  0
 13 15  1  0  0  0  0
 13 41  1  0  0  0  0
 13 42  1  0  0  0  0
 14 15  1  0  0  0  0
 14 43  1  0  0  0  0
 14 44  1  0  0  0  0
 15 45  1  0  0  0  0
 15 46  1  0  0  0  0
 16 47  1  0  0  0  0
 16 48  1  0  0  0  0
 17 18  1  0  0  0  0
 17 49  1  0  0  0  0
 17 50  1  0  0  0  0
 19 20  1  0  0  0  0
 20 21  1  0  0  0  0
 20 52  1  0  0  0  0
 21 22  1  0  0  0  0
 21 54  1  0  0  0  0
 21 55  1  0  0  0  0
 22 23  2  0  0  0  0
 22 24  1  0  0  0  0
 23 25  1  0  0  0  0
 23 58  1  0  0  0  0
 24 26  2  0  0  0  0
 24 59  1  0  0  0  0
 25 27  2  0  0  0  0
 25 60  1  0  0  0  0
 26 27  1  0  0  0  0
 26 61  1  0  0  0  0
 28 29  1  0  0  0  0
 29 30  2  0  0  0  0
 29 31  1  0  0  0  0
 30 32  1  0  0  0  0
 31 33  2  0  0  0  0
 32 34  2  0  0  0  0
 32 62  1  0  0  0  0
 33 34  1  0  0  0  0
 33 63  1  0  0  0  0
 34 64  1  0  0  0  0
 35 65  1  0  0  0  0
 35 66  1  0  0  0  0
 35 67  1  0  0  0  0
 36 68  1  0  0  0  0
 36 69  1  0  0  0  0
 36 70  1  0  0  0  0
M  END
> <PUBCHEM_COMPOUND_CID>
10141654

> <PUBCHEM_CONFORMER_RMSD>
1.2

> <PUBCHEM_CONFORMER_DIVERSEORDER>
4
27
36
5
8
51
68
41
63
69
25
60
9
17
30
67
45
59
72
33
62
50
58
57
14
34
61
29
43
6
47
28
31
42
44
18
56
35
66
55
64
12
26
32
49
7
21
20
13
70
48
65
10
53
52
2
22
46
19
11
54
38
71
24
37
15
1
16
39
23
40
3

> <PUBCHEM_MMFF94_PARTIAL_CHARGES>
41
1 -0.65
16 0.3
17 0.06
18 0.66
19 0.57
2 -0.57
20 0.33
21 0.14
22 -0.14
23 -0.15
24 -0.15
25 -0.15
26 -0.15
27 0.08
28 0.63
29 0.09
3 -0.57
30 0.08
31 0.08
32 -0.15
33 -0.15
34 -0.15
35 0.28
36 0.28
4 -0.23
5 -0.57
51 0.37
53 0.5
56 0.36
57 0.36
58 0.15
59 0.15
6 -0.36
60 0.15
61 0.15
62 0.15
63 0.15
64 0.15
7 -0.36
8 -0.73
9 -0.99

> <PUBCHEM_EFFECTIVE_ROTOR_COUNT>
14.2

> <PUBCHEM_PHARMACOPHORE_FEATURES>
13
1 1 acceptor
1 2 acceptor
1 3 acceptor
1 5 acceptor
1 6 acceptor
1 7 acceptor
1 8 donor
1 9 cation
1 9 donor
3 1 2 18 anion
6 10 11 12 13 14 15 rings
6 22 23 24 25 26 27 rings
6 29 30 31 32 33 34 rings

> <PUBCHEM_HEAVY_ATOM_COUNT>
36

> <PUBCHEM_ATOM_DEF_STEREO_COUNT>
1

> <PUBCHEM_ATOM_UDEF_STEREO_COUNT>
0

> <PUBCHEM_BOND_DEF_STEREO_COUNT>
0

> <PUBCHEM_BOND_UDEF_STEREO_COUNT>
0

> <PUBCHEM_ISOTOPIC_ATOM_COUNT>
0

> <PUBCHEM_COMPONENT_COUNT>
1

> <PUBCHEM_CACTVS_TAUTO_COUNT>
2

> <PUBCHEM_CONFORMER_ID>
009ABFD600000004

> <PUBCHEM_MMFF94_ENERGY>
115.505

> <PUBCHEM_FEATURE_SELFOVERLAP>
66.031

> <PUBCHEM_SHAPE_FINGERPRINT>
10842077 115 17624401374570637488
12788726 201 17559690459388916232
13782708 43 12751226022508523957
13878862 14 18190722189944719415
13944108 23 18337958861915608700
14347329 18 18189338051541118584
14931854 50 18201167580964108892
15082195 135 18201428164956700007
15183329 4 17917715694720183416
15274700 21 18192443081131969459
15530120 55 16916212437495107580
18470217 77 16877944971326137671
21033648 144 18334007273018213103
21133410 62 18337689571597242931
22122407 14 18123758556871089289
2838139 119 18131066056217879087
3298306 158 18341045319650281922
397830 11 17749403554847778659
437795 139 13829863387243787268
513532 50 16558453267419591466
5252454 2 18335698386204558598
58902169 19 17987789692646363343
6608658 132 17632017455846590769

> <PUBCHEM_SHAPE_MULTIPOLES>
689.82
18.18
4.76
2.51
9.49
2.75
-0.68
-15.87
-5.67
-6.1
1.4
2.89
-1.19
-0.75

> <PUBCHEM_SHAPE_SELFOVERLAP>
1455.496

> <PUBCHEM_SHAPE_VOLUME>
381.9

> <PUBCHEM_COORDINATE_TYPE>
2
5
10

$$$$
