6429080
  -OEChem-02172602303D

 42 43  0     1  0  0  0  0  0999 V2000
   -0.8946    0.0489   -2.0130 O   0  0  0  0  0  0  0  0  0  0  0  0
    0.8437    0.3363   -0.3381 C   0  0  1  0  0  0  0  0  0  0  0  0
    0.6127    1.8732   -0.1722 C   0  0  1  0  0  0  0  0  0  0  0  0
   -0.4960   -0.3725   -0.7046 C   0  0  1  0  0  0  0  0  0  0  0  0
   -1.6216   -0.0618    0.3035 C   0  0  1  0  0  0  0  0  0  0  0  0
    1.9316    0.0143   -1.4044 C   0  0  0  0  0  0  0  0  0  0  0  0
   -0.5548    2.1784    0.7900 C   0  0  0  0  0  0  0  0  0  0  0  0
   -1.8415    1.4506    0.4166 C   0  0  0  0  0  0  0  0  0  0  0  0
    1.4522   -0.3137    0.8860 C   0  0  0  0  0  0  0  0  0  0  0  0
   -2.9357   -0.7556   -0.0637 C   0  0  0  0  0  0  0  0  0  0  0  0
    2.6951   -1.2084   -0.8894 C   0  0  0  0  0  0  0  0  0  0  0  0
    2.4518   -1.1499    0.5823 C   0  0  0  0  0  0  0  0  0  0  0  0
    1.8423    2.6641    0.3059 C   0  0  0  0  0  0  0  0  0  0  0  0
   -2.7206   -2.2583   -0.2134 C   0  0  0  0  0  0  0  0  0  0  0  0
   -4.0034   -0.4642    0.9862 C   0  0  0  0  0  0  0  0  0  0  0  0
    3.2388   -1.9813    1.5285 C   0  0  0  0  0  0  0  0  0  0  0  0
    0.3400    2.2775   -1.1574 H   0  0  0  0  0  0  0  0  0  0  0  0
   -0.3187   -1.4534   -0.7472 H   0  0  0  0  0  0  0  0  0  0  0  0
   -1.3071   -0.4301    1.2898 H   0  0  0  0  0  0  0  0  0  0  0  0
    2.6444    0.8374   -1.5192 H   0  0  0  0  0  0  0  0  0  0  0  0
    1.5383   -0.1695   -2.4082 H   0  0  0  0  0  0  0  0  0  0  0  0
   -0.7525    3.2577    0.7968 H   0  0  0  0  0  0  0  0  0  0  0  0
   -0.2752    1.9103    1.8168 H   0  0  0  0  0  0  0  0  0  0  0  0
   -2.5752    1.6915    1.1921 H   0  0  0  0  0  0  0  0  0  0  0  0
   -2.2292    1.8549   -0.5268 H   0  0  0  0  0  0  0  0  0  0  0  0
    1.0932   -0.1496    1.8930 H   0  0  0  0  0  0  0  0  0  0  0  0
   -3.3080   -0.3766   -1.0244 H   0  0  0  0  0  0  0  0  0  0  0  0
    3.7583   -1.1347   -1.1375 H   0  0  0  0  0  0  0  0  0  0  0  0
    2.2935   -2.1372   -1.3080 H   0  0  0  0  0  0  0  0  0  0  0  0
    2.1854    2.3278    1.2896 H   0  0  0  0  0  0  0  0  0  0  0  0
    2.6798    2.5904   -0.3917 H   0  0  0  0  0  0  0  0  0  0  0  0
    1.5986    3.7294    0.3916 H   0  0  0  0  0  0  0  0  0  0  0  0
   -0.5112   -0.5729   -2.6541 H   0  0  0  0  0  0  0  0  0  0  0  0
   -2.2049   -2.6812    0.6555 H   0  0  0  0  0  0  0  0  0  0  0  0
   -3.6806   -2.7778   -0.3122 H   0  0  0  0  0  0  0  0  0  0  0  0
   -2.1490   -2.5032   -1.1136 H   0  0  0  0  0  0  0  0  0  0  0  0
   -3.6401   -0.6645    2.0000 H   0  0  0  0  0  0  0  0  0  0  0  0
   -4.8861   -1.0932    0.8229 H   0  0  0  0  0  0  0  0  0  0  0  0
   -4.3566    0.5700    0.9384 H   0  0  0  0  0  0  0  0  0  0  0  0
    3.1253   -3.0430    1.2883 H   0  0  0  0  0  0  0  0  0  0  0  0
    2.9131   -1.8331    2.5632 H   0  0  0  0  0  0  0  0  0  0  0  0
    4.3007   -1.7234    1.4696 H   0  0  0  0  0  0  0  0  0  0  0  0
  1  4  1  0  0  0  0
  1 33  1  0  0  0  0
  2  3  1  0  0  0  0
  2  4  1  0  0  0  0
  2  6  1  0  0  0  0
  2  9  1  0  0  0  0
  3  7  1  0  0  0  0
  3 13  1  0  0  0  0
  3 17  1  0  0  0  0
  4  5  1  0  0  0  0
  4 18  1  0  0  0  0
  5  8  1  0  0  0  0
  5 10  1  0  0  0  0
  5 19  1  0  0  0  0
  6 11  1  0  0  0  0
  6 20  1  0  0  0  0
  6 21  1  0  0  0  0
  7  8  1  0  0  0  0
  7 22  1  0  0  0  0
  7 23  1  0  0  0  0
  8 24  1  0  0  0  0
  8 25  1  0  0  0  0
  9 12  2  0  0  0  0
  9 26  1  0  0  0  0
 10 14  1  0  0  0  0
 10 15  1  0  0  0  0
 10 27  1  0  0  0  0
 11 12  1  0  0  0  0
 11 28  1  0  0  0  0
 11 29  1  0  0  0  0
 12 16  1  0  0  0  0
 13 30  1  0  0  0  0
 13 31  1  0  0  0  0
 13 32  1  0  0  0  0
 14 34  1  0  0  0  0
 14 35  1  0  0  0  0
 14 36  1  0  0  0  0
 15 37  1  0  0  0  0
 15 38  1  0  0  0  0
 15 39  1  0  0  0  0
 16 40  1  0  0  0  0
 16 41  1  0  0  0  0
 16 42  1  0  0  0  0
M  END
> <PUBCHEM_COMPOUND_CID>
6429080

> <PUBCHEM_CONFORMER_RMSD>
0.6

> <PUBCHEM_CONFORMER_DIVERSEORDER>
1
4
2
3

> <PUBCHEM_MMFF94_PARTIAL_CHARGES>
9
1 -0.68
11 0.14
12 -0.28
16 0.14
2 0.14
26 0.15
33 0.4
4 0.28
9 -0.29

> <PUBCHEM_EFFECTIVE_ROTOR_COUNT>
2.4

> <PUBCHEM_PHARMACOPHORE_FEATURES>
5
1 1 acceptor
1 1 donor
3 10 14 15 hydrophobe
5 2 6 9 11 12 rings
6 2 3 4 5 7 8 rings

> <PUBCHEM_HEAVY_ATOM_COUNT>
16

> <PUBCHEM_ATOM_DEF_STEREO_COUNT>
4

> <PUBCHEM_ATOM_UDEF_STEREO_COUNT>
0

> <PUBCHEM_BOND_DEF_STEREO_COUNT>
0

> <PUBCHEM_BOND_UDEF_STEREO_COUNT>
0

> <PUBCHEM_ISOTOPIC_ATOM_COUNT>
0

> <PUBCHEM_COMPONENT_COUNT>
1

> <PUBCHEM_CACTVS_TAUTO_COUNT>
1

> <PUBCHEM_CONFORMER_ID>
0062199800000001

> <PUBCHEM_MMFF94_ENERGY>
42.3232

> <PUBCHEM_FEATURE_SELFOVERLAP>
25.376

> <PUBCHEM_SHAPE_FINGERPRINT>
10130415 120 18341338846579492611
10980938 120 18127134297390060901
11086676 242 18272097097140391873
11578080 2 17822557340197996220
11680611 10 18338813199134407120
11725454 13 14347780814772306470
11769659 78 18113336375438274011
12423570 1 10750057672007474724
12553582 1 18411986840593174359
12716301 132 17769674004576372353
12824470 246 17749386997131583042
12932764 1 18261116322154020071
13083527 12 18124849481977921354
13538477 17 18046354032896011948
14817 1 14299185561873447164
15375462 189 18333739038892659299
16752209 62 18266178336291421711
16945 1 18199194983725359633
20559304 39 18412272730642764814
20645477 70 18268992167062595423
20653085 51 10519691332839668154
20715346 28 17346032243324661862
21501502 16 18199752612672938313
21524375 3 17549821530823089088
21650355 55 18121765141809552000
21731516 1 18335422343939523091
22112679 90 18191599561880175768
23184049 29 18411697716379507715
232386 152 18336265652315333962
23419403 2 17826476029883066716
23557571 272 17986965063773638982
23559900 14 18202010897354594870
23598294 1 18122920736692952682
2748010 2 18271800194551859828
34934 24 18129387171035442293
528862 383 18197776811156835253
5902787 121 18411981394563931251
7364860 26 18200319951613769016
74978 22 18412266164144249407
81228 2 17911793574964116864
81539 233 18049722111568400828

> <PUBCHEM_SHAPE_MULTIPOLES>
323.4
5.27
2.55
1.36
2.5
1.01
0.27
-3.32
-1.42
-0.76
-0.63
-0.54
-0.32
-0.63

> <PUBCHEM_SHAPE_SELFOVERLAP>
660.694

> <PUBCHEM_SHAPE_VOLUME>
189.3

> <PUBCHEM_COORDINATE_TYPE>
2
5
10

$$$$
