122176375
  -OEChem-02172602473D

 43 45  0     1  0  0  0  0  0999 V2000
    2.0864    0.5830    1.6609 S   0  0  0  0  0  0  0  0  0  0  0  0
    0.6930   -2.7513    0.6415 O   0  0  0  0  0  0  0  0  0  0  0  0
    4.6091    0.9567   -0.8115 O   0  0  0  0  0  0  0  0  0  0  0  0
    5.2507   -0.6801    0.6318 O   0  0  0  0  0  0  0  0  0  0  0  0
   -0.0754   -0.7124   -0.1651 N   0  0  0  0  0  0  0  0  0  0  0  0
    2.2367   -0.9658    0.7571 C   0  0  2  0  0  0  0  0  0  0  0  0
    3.0925   -0.8290   -0.4980 C   0  0  2  0  0  0  0  0  0  0  0  0
    0.8739   -1.5447    0.4400 C   0  0  0  0  0  0  0  0  0  0  0  0
    0.0397    0.7208   -0.2310 C   0  0  0  0  0  0  0  0  0  0  0  0
   -1.2774   -1.3346   -0.7237 C   0  0  0  0  0  0  0  0  0  0  0  0
    0.9799    1.4172    0.5477 C   0  0  0  0  0  0  0  0  0  0  0  0
   -2.5300   -0.8167   -0.0781 C   0  0  0  0  0  0  0  0  0  0  0  0
    3.2850   -2.1836   -1.1740 C   0  0  0  0  0  0  0  0  0  0  0  0
   -0.8219    1.4769   -1.0495 C   0  0  0  0  0  0  0  0  0  0  0  0
    4.4288   -0.2109   -0.1420 C   0  0  0  0  0  0  0  0  0  0  0  0
    1.0455    2.8196    0.5020 C   0  0  0  0  0  0  0  0  0  0  0  0
   -3.7278   -0.7462   -0.7893 C   0  0  0  0  0  0  0  0  0  0  0  0
   -2.4839   -0.4023    1.2530 C   0  0  0  0  0  0  0  0  0  0  0  0
   -0.7439    2.8711   -1.0991 C   0  0  0  0  0  0  0  0  0  0  0  0
    0.1894    3.5431   -0.3226 C   0  0  0  0  0  0  0  0  0  0  0  0
   -4.8795   -0.2616   -0.1696 C   0  0  0  0  0  0  0  0  0  0  0  0
   -3.8016   -1.1840   -2.2153 C   0  0  0  0  0  0  0  0  0  0  0  0
   -3.6357    0.0823    1.8730 C   0  0  0  0  0  0  0  0  0  0  0  0
   -4.8334    0.1526    1.1617 C   0  0  0  0  0  0  0  0  0  0  0  0
    2.7251   -1.6578    1.4556 H   0  0  0  0  0  0  0  0  0  0  0  0
    2.6014   -0.1815   -1.2362 H   0  0  0  0  0  0  0  0  0  0  0  0
   -1.2535   -2.4215   -0.5851 H   0  0  0  0  0  0  0  0  0  0  0  0
   -1.2441   -1.1666   -1.8057 H   0  0  0  0  0  0  0  0  0  0  0  0
    3.6866   -2.9264   -0.4758 H   0  0  0  0  0  0  0  0  0  0  0  0
    3.9982   -2.1003   -2.0019 H   0  0  0  0  0  0  0  0  0  0  0  0
    2.3477   -2.5687   -1.5875 H   0  0  0  0  0  0  0  0  0  0  0  0
   -1.5448    1.0197   -1.7165 H   0  0  0  0  0  0  0  0  0  0  0  0
    1.7661    3.3643    1.1085 H   0  0  0  0  0  0  0  0  0  0  0  0
   -1.5816   -0.4725    1.8534 H   0  0  0  0  0  0  0  0  0  0  0  0
   -1.4108    3.4280   -1.7510 H   0  0  0  0  0  0  0  0  0  0  0  0
    0.2509    4.6265   -0.3569 H   0  0  0  0  0  0  0  0  0  0  0  0
   -5.8206   -0.1991   -0.7094 H   0  0  0  0  0  0  0  0  0  0  0  0
   -3.4008   -2.1960   -2.3352 H   0  0  0  0  0  0  0  0  0  0  0  0
   -4.8365   -1.2117   -2.5744 H   0  0  0  0  0  0  0  0  0  0  0  0
   -3.2510   -0.4919   -2.8603 H   0  0  0  0  0  0  0  0  0  0  0  0
   -3.6021    0.3978    2.9117 H   0  0  0  0  0  0  0  0  0  0  0  0
   -5.7305    0.5286    1.6449 H   0  0  0  0  0  0  0  0  0  0  0  0
    5.4710    1.3725   -0.5959 H   0  0  0  0  0  0  0  0  0  0  0  0
  1  6  1  0  0  0  0
  1 11  1  0  0  0  0
  2  8  2  0  0  0  0
  3 15  1  0  0  0  0
  3 43  1  0  0  0  0
  4 15  2  0  0  0  0
  5  8  1  0  0  0  0
  5  9  1  0  0  0  0
  5 10  1  0  0  0  0
  6  7  1  0  0  0  0
  6  8  1  0  0  0  0
  6 25  1  0  0  0  0
  7 13  1  0  0  0  0
  7 15  1  0  0  0  0
  7 26  1  0  0  0  0
  9 11  1  0  0  0  0
  9 14  2  0  0  0  0
 10 12  1  0  0  0  0
 10 27  1  0  0  0  0
 10 28  1  0  0  0  0
 11 16  2  0  0  0  0
 12 17  1  0  0  0  0
 12 18  2  0  0  0  0
 13 29  1  0  0  0  0
 13 30  1  0  0  0  0
 13 31  1  0  0  0  0
 14 19  1  0  0  0  0
 14 32  1  0  0  0  0
 16 20  1  0  0  0  0
 16 33  1  0  0  0  0
 17 21  2  0  0  0  0
 17 22  1  0  0  0  0
 18 23  1  0  0  0  0
 18 34  1  0  0  0  0
 19 20  2  0  0  0  0
 19 35  1  0  0  0  0
 20 36  1  0  0  0  0
 21 24  1  0  0  0  0
 21 37  1  0  0  0  0
 22 38  1  0  0  0  0
 22 39  1  0  0  0  0
 22 40  1  0  0  0  0
 23 24  2  0  0  0  0
 23 41  1  0  0  0  0
 24 42  1  0  0  0  0
M  END
> <PUBCHEM_COMPOUND_CID>
122176375

> <PUBCHEM_CONFORMER_RMSD>
0.8

> <PUBCHEM_CONFORMER_DIVERSEORDER>
1
26
90
48
63
84
64
2
9
67
91
53
30
73
29
3
55
93
79
58
66
5
72
49
51
38
25
18
76
87
71
32
19
88
43
57
75
83
78
74
77
60
16
81
86
36
56
85
44
8
12
54
70
68
95
69
52
89
59
46
80
40
15
62
21
39
10
33
35
22
50
7
42
92
61
28
13
24
47
65
14
4
34
6
23
45
11
94
82
20
27
41
37
17
31

> <PUBCHEM_MMFF94_PARTIAL_CHARGES>
32
1 -0.33
10 0.44
11 0.1
12 -0.14
14 -0.15
15 0.66
16 -0.15
17 -0.14
18 -0.15
19 -0.15
2 -0.57
20 -0.15
21 -0.15
22 0.14
23 -0.15
24 -0.15
3 -0.65
32 0.15
33 0.15
34 0.15
35 0.15
36 0.15
37 0.15
4 -0.57
41 0.15
42 0.15
43 0.5
5 -0.48
6 0.29
7 0.06
8 0.57
9 0.12

> <PUBCHEM_EFFECTIVE_ROTOR_COUNT>
4.6

> <PUBCHEM_PHARMACOPHORE_FEATURES>
8
1 13 hydrophobe
1 2 acceptor
1 3 acceptor
1 4 acceptor
3 3 4 15 anion
6 1 5 6 8 9 11 rings
6 12 17 18 21 23 24 rings
6 9 11 14 16 19 20 rings

> <PUBCHEM_HEAVY_ATOM_COUNT>
24

> <PUBCHEM_ATOM_DEF_STEREO_COUNT>
0

> <PUBCHEM_ATOM_UDEF_STEREO_COUNT>
2

> <PUBCHEM_BOND_DEF_STEREO_COUNT>
0

> <PUBCHEM_BOND_UDEF_STEREO_COUNT>
0

> <PUBCHEM_ISOTOPIC_ATOM_COUNT>
0

> <PUBCHEM_COMPONENT_COUNT>
1

> <PUBCHEM_CACTVS_TAUTO_COUNT>
6

> <PUBCHEM_CONFORMER_ID>
0748437700000001

> <PUBCHEM_MMFF94_ENERGY>
78.1245

> <PUBCHEM_FEATURE_SELFOVERLAP>
40.67

> <PUBCHEM_SHAPE_FINGERPRINT>
10366900 7 17531238492182237363
104564 63 18263926536182662133
10764073 3 15908294238643522181
10906281 52 18339938120595548196
11578080 2 17628599069695035921
11640471 11 17987525973728663441
12011746 2 18408319969588380293
12035758 1 18262237845241249336
12236239 1 18060421326659559931
12467345 10 16988839518394220067
12553582 1 18335411361845186899
12788726 201 18187360970230139768
13009979 54 17988645272012081731
13132413 78 18341342101964632609
13140716 1 18263926712023120579
13911987 19 18114188565970113934
14347332 77 18196661688214852582
14363568 33 18043262442512292621
14787075 74 18335143111362748940
14790565 3 18336555966224431300
14955137 171 18198930104708009275
15238133 3 18043553658769768257
15527383 91 18410016546131986529
15848702 151 17917714586628858774
1601671 61 18342742905241865058
16945 1 18335690663816307027
17357779 13 18335972104269905117
17492 54 18189905382292623532
17980427 23 17346600790021734305
1813 80 18340217318437771588
20600515 1 17968676950623651719
20691752 17 18336532919692924698
20739085 24 18335987566099819272
21285901 2 18270972236768674534
21330990 113 17415864417164190430
21641784 216 17969237667621653124
22182313 1 18191560082546728300
23175994 123 18113625577430135925
23402539 116 18413385436995961470
23419403 2 15440369710754383635
23493267 7 16370994196762476117
23557571 272 18339928100341732478
23558518 356 17396681104856052755
23559900 14 16630515259150940219
2748010 2 18194093318576637588
350125 39 18121225277506241594
352729 6 17546710569961537717
3737641 26 18269282252800108838
474 4 18268142231493854211
57527295 17 17751328769922688023
70251023 43 18050567344258820267
7164475 11 18265615377969800486

> <PUBCHEM_SHAPE_MULTIPOLES>
475.17
8.93
2.95
1.57
0.28
2.33
-0.03
-3.36
-0.18
-1.3
0.78
1.16
-0.11
-0.21

> <PUBCHEM_SHAPE_SELFOVERLAP>
1013.607

> <PUBCHEM_SHAPE_VOLUME>
264.3

> <PUBCHEM_COORDINATE_TYPE>
2
5
10

$$$$
