9548624
  -OEChem-02172602343D

 45 45  0     1  0  0  0  0  0999 V2000
    0.2349   -1.7106    1.4833 S   0  0  0  0  0  0  0  0  0  0  0  0
   -2.7604    2.3989    0.6671 S   0  0  0  0  0  0  0  0  0  0  0  0
    1.2240   -0.2298   -0.5096 O   0  0  0  0  0  0  0  0  0  0  0  0
    5.1579   -0.4918    0.6499 O   0  0  0  0  0  0  0  0  0  0  0  0
    4.3372    1.5154   -1.3193 O   0  0  0  0  0  0  0  0  0  0  0  0
    3.0659   -0.9594    2.5803 O   0  0  0  0  0  0  0  0  0  0  0  0
    0.2955    1.3649   -2.5434 O   0  0  0  0  0  0  0  0  0  0  0  0
   -1.3487   -2.9588   -1.1883 O   0  0  0  0  0  0  0  0  0  0  0  0
   -2.6602    0.7697    0.6781 O   0  0  0  0  0  0  0  0  0  0  0  0
   -4.3491    2.6587    0.4108 O   0  0  0  0  0  0  0  0  0  0  0  0
   -2.0413    2.8953   -0.4914 O   0  0  0  0  0  0  0  0  0  0  0  0
   -2.4449    2.8841    1.9977 O   0  0  0  0  0  0  0  0  0  0  0  0
   -1.3789    0.3390    1.0292 N   0  0  0  0  0  0  0  0  0  0  0  0
    3.8598    0.1008    0.5775 C   0  0  1  0  0  0  0  0  0  0  0  0
    3.5295    0.4269   -0.8796 C   0  0  1  0  0  0  0  0  0  0  0  0
    2.8543   -0.8914    1.1705 C   0  0  2  0  0  0  0  0  0  0  0  0
    2.0548    0.8110   -1.0253 C   0  0  1  0  0  0  0  0  0  0  0  0
    1.4159   -0.4463    0.8882 C   0  0  2  0  0  0  0  0  0  0  0  0
    1.6687    1.0248   -2.4855 C   0  0  0  0  0  0  0  0  0  0  0  0
   -2.4238   -1.9271    0.7127 C   0  0  0  0  0  0  0  0  0  0  0  0
   -2.5432   -2.2864   -0.7828 C   0  0  0  0  0  0  0  0  0  0  0  0
   -1.2978   -0.9546    1.0382 C   0  0  0  0  0  0  0  0  0  0  0  0
   -3.7074   -3.2663   -0.9740 C   0  0  0  0  0  0  0  0  0  0  0  0
   -2.7424   -1.0668   -1.6845 C   0  0  0  0  0  0  0  0  0  0  0  0
    3.9043    1.0198    1.1752 H   0  0  0  0  0  0  0  0  0  0  0  0
    3.7641   -0.4391   -1.5115 H   0  0  0  0  0  0  0  0  0  0  0  0
    3.0523   -1.8867    0.7511 H   0  0  0  0  0  0  0  0  0  0  0  0
    1.8377    1.7368   -0.4750 H   0  0  0  0  0  0  0  0  0  0  0  0
    1.2027    0.4788    1.4383 H   0  0  0  0  0  0  0  0  0  0  0  0
    1.8004    0.1054   -3.0649 H   0  0  0  0  0  0  0  0  0  0  0  0
    2.2501    1.8239   -2.9550 H   0  0  0  0  0  0  0  0  0  0  0  0
    5.3327   -0.6963    1.5845 H   0  0  0  0  0  0  0  0  0  0  0  0
    5.2662    1.2588   -1.1899 H   0  0  0  0  0  0  0  0  0  0  0  0
    2.4116   -1.5815    2.9417 H   0  0  0  0  0  0  0  0  0  0  0  0
   -2.2586   -2.8447    1.2930 H   0  0  0  0  0  0  0  0  0  0  0  0
   -3.3689   -1.5056    1.0758 H   0  0  0  0  0  0  0  0  0  0  0  0
    0.1740    2.1930   -2.0483 H   0  0  0  0  0  0  0  0  0  0  0  0
   -3.7758   -3.5909   -2.0187 H   0  0  0  0  0  0  0  0  0  0  0  0
   -4.6639   -2.8182   -0.6860 H   0  0  0  0  0  0  0  0  0  0  0  0
   -3.5546   -4.1744   -0.3796 H   0  0  0  0  0  0  0  0  0  0  0  0
   -3.6444   -0.5076   -1.4179 H   0  0  0  0  0  0  0  0  0  0  0  0
   -2.8351   -1.3778   -2.7320 H   0  0  0  0  0  0  0  0  0  0  0  0
   -1.8787   -0.3952   -1.6540 H   0  0  0  0  0  0  0  0  0  0  0  0
   -0.6102   -2.3297   -1.1248 H   0  0  0  0  0  0  0  0  0  0  0  0
   -4.9597    2.1242    0.9709 H   0  0  0  0  0  0  0  0  0  0  0  0
  1 18  1  0  0  0  0
  1 22  1  0  0  0  0
  2  9  1  0  0  0  0
  2 10  1  0  0  0  0
  2 11  2  0  0  0  0
  2 12  2  0  0  0  0
  3 17  1  0  0  0  0
  3 18  1  0  0  0  0
  4 14  1  0  0  0  0
  4 32  1  0  0  0  0
  5 15  1  0  0  0  0
  5 33  1  0  0  0  0
  6 16  1  0  0  0  0
  6 34  1  0  0  0  0
  7 19  1  0  0  0  0
  7 37  1  0  0  0  0
  8 21  1  0  0  0  0
  8 44  1  0  0  0  0
  9 13  1  0  0  0  0
 10 45  1  0  0  0  0
 13 22  2  0  0  0  0
 14 15  1  0  0  0  0
 14 16  1  0  0  0  0
 14 25  1  0  0  0  0
 15 17  1  0  0  0  0
 15 26  1  0  0  0  0
 16 18  1  0  0  0  0
 16 27  1  0  0  0  0
 17 19  1  0  0  0  0
 17 28  1  0  0  0  0
 18 29  1  0  0  0  0
 19 30  1  0  0  0  0
 19 31  1  0  0  0  0
 20 21  1  0  0  0  0
 20 22  1  0  0  0  0
 20 35  1  0  0  0  0
 20 36  1  0  0  0  0
 21 23  1  0  0  0  0
 21 24  1  0  0  0  0
 23 38  1  0  0  0  0
 23 39  1  0  0  0  0
 23 40  1  0  0  0  0
 24 41  1  0  0  0  0
 24 42  1  0  0  0  0
 24 43  1  0  0  0  0
M  END
> <PUBCHEM_COMPOUND_CID>
9548624

> <PUBCHEM_CONFORMER_RMSD>
0.8

> <PUBCHEM_CONFORMER_DIVERSEORDER>
1
203
27
208
161
88
45
189
178
15
195
142
29
74
107
59
170
22
124
222
185
75
130
212
150
115
31
219
114
146
53
73
192
207
131
99
200
159
62
97
201
43
205
227
162
119
204
137
109
20
96
214
229
129
186
175
225
64
118
211
35
78
191
128
12
196
221
103
57
23
154
139
16
188
149
193
216
84
199
198
46
176
179
58
56
217
3
224
138
180
116
26
152
125
202
135
38
157
168
113
39
10
183
61
194
181
71
111
160
24
98
153
144
187
164
155
66
7
112
141
132
169
83
42
156
55
17
173
136
122
147
81
226
148
174
69
28
32
134
215
102
104
177
210
8
206
18
65
19
70
76
190
21
48
218
143
165
91
223
213
172
2
92
110
11
145
60
51
94
133
126
171
140
13
228
80
105
52
101
209
93
6
197
158
33
220
108
68
72
167
121
40
117
5
79
123
87
151
100
9
4
36
184
37
182
89
90
95
14
49
67
47
77
63
106
82
166
25
127
34
86
54
120
85
44
50
41
163
30

> <PUBCHEM_MMFF94_PARTIAL_CHARGES>
28
1 -0.37
10 -0.68
11 -0.65
12 -0.65
13 -0.51
14 0.28
15 0.28
16 0.28
17 0.28
18 0.51
19 0.28
2 1.67
20 0.06
21 0.28
22 0.53
3 -0.56
32 0.4
33 0.4
34 0.4
37 0.4
4 -0.68
44 0.4
45 0.5
5 -0.68
6 -0.68
7 -0.68
8 -0.68
9 -0.12

> <PUBCHEM_EFFECTIVE_ROTOR_COUNT>
8.2

> <PUBCHEM_PHARMACOPHORE_FEATURES>
18
1 10 acceptor
1 11 acceptor
1 12 acceptor
1 13 acceptor
1 3 acceptor
1 4 acceptor
1 4 donor
1 5 acceptor
1 5 donor
1 6 acceptor
1 6 donor
1 7 acceptor
1 7 donor
1 8 acceptor
1 8 donor
3 21 23 24 hydrophobe
4 2 10 11 12 anion
6 3 14 15 16 17 18 rings

> <PUBCHEM_HEAVY_ATOM_COUNT>
24

> <PUBCHEM_ATOM_DEF_STEREO_COUNT>
5

> <PUBCHEM_ATOM_UDEF_STEREO_COUNT>
0

> <PUBCHEM_BOND_DEF_STEREO_COUNT>
1

> <PUBCHEM_BOND_UDEF_STEREO_COUNT>
0

> <PUBCHEM_ISOTOPIC_ATOM_COUNT>
0

> <PUBCHEM_COMPONENT_COUNT>
1

> <PUBCHEM_CACTVS_TAUTO_COUNT>
1

> <PUBCHEM_CONFORMER_ID>
0091B35000000001

> <PUBCHEM_MMFF94_ENERGY>
48.9146

> <PUBCHEM_FEATURE_SELFOVERLAP>
91.434

> <PUBCHEM_SHAPE_FINGERPRINT>
11578080 2 17558863669868515308
11582403 64 15836433534559675362
11640471 11 18262526887665622097
12539773 59 18189054355607633871
12596599 1 18260263045048767830
12788726 201 18339087102616511763
13009979 54 18261376867386339290
13583140 156 17203312413341756202
14004458 79 18201153364701376211
16752209 62 18271517671761397539
1813 80 17699854222245481431
18219364 16 16009313235318687410
192875 21 18115585001466280278
20600515 1 17486481887425678147
21197605 99 16956178285717667669
21524375 3 18193280698058245937
23352939 185 17677318554639384959
23419403 2 17401428026928436265
23557571 272 17846775217517621329
23559900 14 17845658037075144098
23598288 3 18336557074831857067
23598291 2 18187363216513983034
57100710 210 17988074603670438598
57100710 29 18333733485562989329
6287921 2 17693098462079459117
633830 44 17749974223010073422
6438718 38 18411149025564476285
7164475 11 18411414033642336019
7471813 234 18192987347190915566
7615 1 18260256452326313210

> <PUBCHEM_SHAPE_MULTIPOLES>
437.93
8.01
3.49
2.27
5.15
1.1
-0.49
0.19
-0.05
-5.69
0.08
0.69
0.29
-3.12

> <PUBCHEM_SHAPE_SELFOVERLAP>
849.346

> <PUBCHEM_SHAPE_VOLUME>
266.7

> <PUBCHEM_COORDINATE_TYPE>
2
5
10

$$$$
