9548703
  -OEChem-02172602543D

 43 44  0     1  0  0  0  0  0999 V2000
   -0.9083    0.6844    0.7364 C   0  0  2  0  0  0  0  0  0  0  0  0
   -1.5984   -0.6744    0.4923 C   0  0  2  0  0  0  0  0  0  0  0  0
   -2.0657    1.6606    0.4222 C   0  0  2  0  0  0  0  0  0  0  0  0
   -0.7226   -1.9439    0.4162 C   0  0  2  0  0  0  0  0  0  0  0  0
    0.3759    0.9563   -0.0668 C   0  0  0  0  0  0  0  0  0  0  0  0
   -2.5401   -0.4367   -0.7069 C   0  0  0  0  0  0  0  0  0  0  0  0
   -2.7028    1.0772   -0.8368 C   0  0  0  0  0  0  0  0  0  0  0  0
    1.5427    0.0523    0.3606 C   0  0  1  0  0  0  0  0  0  0  0  0
    0.2919   -1.9523   -0.7368 C   0  0  0  0  0  0  0  0  0  0  0  0
    1.6164   -1.2572   -0.4326 C   0  0  0  0  0  0  0  0  0  0  0  0
    2.8774    0.7956    0.2200 C   0  0  0  0  0  0  0  0  0  0  0  0
   -1.7015    3.1295    0.2718 C   0  0  0  0  0  0  0  0  0  0  0  0
   -1.6195   -3.1880    0.3089 C   0  0  0  0  0  0  0  0  0  0  0  0
    4.0139   -0.0435    0.7932 C   0  0  0  0  0  0  0  0  0  0  0  0
    3.1407    1.1400   -1.2417 C   0  0  0  0  0  0  0  0  0  0  0  0
   -0.6601    0.7758    1.8025 H   0  0  0  0  0  0  0  0  0  0  0  0
   -2.2594   -0.8240    1.3619 H   0  0  0  0  0  0  0  0  0  0  0  0
   -2.7972    1.5864    1.2402 H   0  0  0  0  0  0  0  0  0  0  0  0
   -0.1775   -2.0371    1.3648 H   0  0  0  0  0  0  0  0  0  0  0  0
    0.1844    0.8726   -1.1428 H   0  0  0  0  0  0  0  0  0  0  0  0
    0.6628    1.9980    0.1186 H   0  0  0  0  0  0  0  0  0  0  0  0
   -3.5105   -0.9121   -0.5213 H   0  0  0  0  0  0  0  0  0  0  0  0
   -2.1623   -0.8472   -1.6470 H   0  0  0  0  0  0  0  0  0  0  0  0
   -2.1865    1.4261   -1.7391 H   0  0  0  0  0  0  0  0  0  0  0  0
   -3.7553    1.3643   -0.9305 H   0  0  0  0  0  0  0  0  0  0  0  0
    1.4164   -0.1932    1.4239 H   0  0  0  0  0  0  0  0  0  0  0  0
   -0.1412   -1.5125   -1.6410 H   0  0  0  0  0  0  0  0  0  0  0  0
    0.5339   -2.9880   -1.0112 H   0  0  0  0  0  0  0  0  0  0  0  0
    2.2256   -1.9694    0.1398 H   0  0  0  0  0  0  0  0  0  0  0  0
    2.1179   -1.1494   -1.3969 H   0  0  0  0  0  0  0  0  0  0  0  0
    2.8251    1.7281    0.7969 H   0  0  0  0  0  0  0  0  0  0  0  0
   -2.6069    3.7340    0.1506 H   0  0  0  0  0  0  0  0  0  0  0  0
   -1.1729    3.4906    1.1597 H   0  0  0  0  0  0  0  0  0  0  0  0
   -1.0711    3.3111   -0.6044 H   0  0  0  0  0  0  0  0  0  0  0  0
   -2.1524   -3.2224   -0.6471 H   0  0  0  0  0  0  0  0  0  0  0  0
   -1.0215   -4.1023    0.3911 H   0  0  0  0  0  0  0  0  0  0  0  0
   -2.3605   -3.2079    1.1151 H   0  0  0  0  0  0  0  0  0  0  0  0
    4.2346   -0.9293    0.1894 H   0  0  0  0  0  0  0  0  0  0  0  0
    4.9340    0.5509    0.8311 H   0  0  0  0  0  0  0  0  0  0  0  0
    3.7923   -0.3674    1.8156 H   0  0  0  0  0  0  0  0  0  0  0  0
    3.4667    0.2866   -1.8429 H   0  0  0  0  0  0  0  0  0  0  0  0
    3.9643    1.8634   -1.2917 H   0  0  0  0  0  0  0  0  0  0  0  0
    2.2878    1.6132   -1.7353 H   0  0  0  0  0  0  0  0  0  0  0  0
  1  2  1  0  0  0  0
  1  3  1  0  0  0  0
  1  5  1  0  0  0  0
  1 16  1  0  0  0  0
  2  4  1  0  0  0  0
  2  6  1  0  0  0  0
  2 17  1  0  0  0  0
  3  7  1  0  0  0  0
  3 12  1  0  0  0  0
  3 18  1  0  0  0  0
  4  9  1  0  0  0  0
  4 13  1  0  0  0  0
  4 19  1  0  0  0  0
  5  8  1  0  0  0  0
  5 20  1  0  0  0  0
  5 21  1  0  0  0  0
  6  7  1  0  0  0  0
  6 22  1  0  0  0  0
  6 23  1  0  0  0  0
  7 24  1  0  0  0  0
  7 25  1  0  0  0  0
  8 10  1  0  0  0  0
  8 11  1  0  0  0  0
  8 26  1  0  0  0  0
  9 10  1  0  0  0  0
  9 27  1  0  0  0  0
  9 28  1  0  0  0  0
 10 29  1  0  0  0  0
 10 30  1  0  0  0  0
 11 14  1  0  0  0  0
 11 15  1  0  0  0  0
 11 31  1  0  0  0  0
 12 32  1  0  0  0  0
 12 33  1  0  0  0  0
 12 34  1  0  0  0  0
 13 35  1  0  0  0  0
 13 36  1  0  0  0  0
 13 37  1  0  0  0  0
 14 38  1  0  0  0  0
 14 39  1  0  0  0  0
 14 40  1  0  0  0  0
 15 41  1  0  0  0  0
 15 42  1  0  0  0  0
 15 43  1  0  0  0  0
M  END
> <PUBCHEM_COMPOUND_CID>
9548703

> <PUBCHEM_CONFORMER_RMSD>
0.6

> <PUBCHEM_CONFORMER_DIVERSEORDER>
2
4
1
5
3
6

> <PUBCHEM_MMFF94_PARTIAL_CHARGES>
0

> <PUBCHEM_EFFECTIVE_ROTOR_COUNT>
2.6

> <PUBCHEM_PHARMACOPHORE_FEATURES>
3
3 11 14 15 hydrophobe
5 1 2 3 6 7 rings
7 1 2 4 5 8 9 10 rings

> <PUBCHEM_HEAVY_ATOM_COUNT>
15

> <PUBCHEM_ATOM_DEF_STEREO_COUNT>
5

> <PUBCHEM_ATOM_UDEF_STEREO_COUNT>
0

> <PUBCHEM_BOND_DEF_STEREO_COUNT>
0

> <PUBCHEM_BOND_UDEF_STEREO_COUNT>
0

> <PUBCHEM_ISOTOPIC_ATOM_COUNT>
0

> <PUBCHEM_COMPONENT_COUNT>
1

> <PUBCHEM_CACTVS_TAUTO_COUNT>
1

> <PUBCHEM_CONFORMER_ID>
0091B39F00000002

> <PUBCHEM_MMFF94_ENERGY>
48.9697

> <PUBCHEM_FEATURE_SELFOVERLAP>
15.273

> <PUBCHEM_SHAPE_FINGERPRINT>
12138202 97 18334288790527540039
13024252 1 13479124696958072773
13140716 1 18124596632910817977
13380535 76 18340763750057832822
13538477 17 18261386810609558234
13583140 156 16950565471402755328
14614273 12 18342176648290349849
14817 1 13003737044748402663
15490181 8 18338803299303172982
15775835 57 18130506314737091345
15852999 172 18341321202511144062
16945 1 18411705417055331386
18186145 218 18195531389353650060
18534176 82 18338797921983006415
19868273 325 17978237375973108134
20510252 161 18343021103174606952
20645476 183 18040991843204135834
20871998 184 18199755919159810126
21501502 16 18269271253382913294
21524375 3 18340483348743649539
22802520 49 18058471892348321614
2334 1 17692250055044626817
23402539 116 18340752815276598463
23419403 2 14617097395834641246
23526113 38 17489587866334967600
23552423 10 17908136582368448069
23557571 272 18124885809291605500
23559900 14 18272936012714133692
25 1 17979083682061895084
257057 1 17762328515273359579
2748010 2 18194136130704791807
305870 269 18047466729740908538
3071541 236 18334849537041484290
353137 74 18268418062878327765
5706482 22 18411129208495766923
5939293 188 16396338716892803233
6992083 37 18040433283145050220
7364860 26 17693935189784533971
74978 22 18335140916750661076
7832392 63 17116631043696791225
81228 2 18268998754967122379
9709674 26 18343864416246370118

> <PUBCHEM_SHAPE_MULTIPOLES>
308.69
5.08
3.08
0.99
4.54
0.66
0.14
-1.64
0.21
-2.43
-0.2
0.22
-0.07
-0.12

> <PUBCHEM_SHAPE_SELFOVERLAP>
616.929

> <PUBCHEM_SHAPE_VOLUME>
180.7

> <PUBCHEM_COORDINATE_TYPE>
2
5
10

$$$$
