131752177
  -OEChem-02172602513D

 70 74  0     1  0  0  0  0  0999 V2000
    1.6929    1.9057   -0.0143 O   0  0  0  0  0  0  0  0  0  0  0  0
   -1.7898    2.3676   -0.3815 O   0  0  0  0  0  0  0  0  0  0  0  0
    1.6915    0.2656   -1.6924 O   0  0  0  0  0  0  0  0  0  0  0  0
   -0.6634    4.5977    0.8232 O   0  0  0  0  0  0  0  0  0  0  0  0
    1.0202    2.7667   -2.6780 O   0  0  0  0  0  0  0  0  0  0  0  0
    2.8114    4.2067    1.0293 O   0  0  0  0  0  0  0  0  0  0  0  0
    3.1368   -2.4188    0.3796 O   0  0  0  0  0  0  0  0  0  0  0  0
   -3.1932    2.7055   -2.1853 O   0  0  0  0  0  0  0  0  0  0  0  0
   -0.0406   -1.8696   -2.1115 O   0  0  0  0  0  0  0  0  0  0  0  0
   -0.7906   -4.3417   -1.7091 O   0  0  0  0  0  0  0  0  0  0  0  0
    1.9167   -6.9305    1.2086 O   0  0  0  0  0  0  0  0  0  0  0  0
    5.2068    1.5598    3.0445 O   0  0  0  0  0  0  0  0  0  0  0  0
    6.7676    2.6854    1.0381 O   0  0  0  0  0  0  0  0  0  0  0  0
   -9.1474   -1.4542    2.1881 O   0  0  0  0  0  0  0  0  0  0  0  0
   -0.7381    3.0614   -1.0520 C   0  0  1  0  0  0  0  0  0  0  0  0
    0.1390    3.7740   -0.0139 C   0  0  2  0  0  0  0  0  0  0  0  0
    0.0975    2.0586   -1.8501 C   0  0  2  0  0  0  0  0  0  0  0  0
    0.9193    2.7614    0.8348 C   0  0  2  0  0  0  0  0  0  0  0  0
    0.8836    1.1385   -0.9075 C   0  0  2  0  0  0  0  0  0  0  0  0
    1.8859    3.4530    1.7910 C   0  0  0  0  0  0  0  0  0  0  0  0
    1.8782   -0.9505   -1.0717 C   0  0  0  0  0  0  0  0  0  0  0  0
   -2.9609    2.2671   -1.0698 C   0  0  0  0  0  0  0  0  0  0  0  0
    2.9019   -1.1988   -0.2346 C   0  0  0  0  0  0  0  0  0  0  0  0
    0.9107   -2.0366   -1.3599 C   0  0  0  0  0  0  0  0  0  0  0  0
    1.1580   -3.3251   -0.6949 C   0  0  0  0  0  0  0  0  0  0  0  0
    2.2635   -3.4487    0.1435 C   0  0  0  0  0  0  0  0  0  0  0  0
   -3.9203    1.5234   -0.2225 C   0  0  0  0  0  0  0  0  0  0  0  0
    3.9140   -0.1817    0.1018 C   0  0  0  0  0  0  0  0  0  0  0  0
    0.3023   -4.4103   -0.8991 C   0  0  0  0  0  0  0  0  0  0  0  0
    2.5207   -4.6610    0.7848 C   0  0  0  0  0  0  0  0  0  0  0  0
    4.0882    0.2164    1.4273 C   0  0  0  0  0  0  0  0  0  0  0  0
    4.6973    0.3831   -0.9046 C   0  0  0  0  0  0  0  0  0  0  0  0
   -5.1594    1.2885   -0.6770 C   0  0  0  0  0  0  0  0  0  0  0  0
    0.5616   -5.6216   -0.2566 C   0  0  0  0  0  0  0  0  0  0  0  0
    1.6684   -5.7468    0.5837 C   0  0  0  0  0  0  0  0  0  0  0  0
    5.0458    1.1793    1.7463 C   0  0  0  0  0  0  0  0  0  0  0  0
    5.6548    1.3461   -0.5857 C   0  0  0  0  0  0  0  0  0  0  0  0
   -6.2043    0.5703    0.0740 C   0  0  0  0  0  0  0  0  0  0  0  0
    5.8291    1.7441    0.7397 C   0  0  0  0  0  0  0  0  0  0  0  0
   -5.8517   -0.2666    1.1327 C   0  0  0  0  0  0  0  0  0  0  0  0
   -7.5459    0.7271   -0.2741 C   0  0  0  0  0  0  0  0  0  0  0  0
   -6.8407   -0.9468    1.8433 C   0  0  0  0  0  0  0  0  0  0  0  0
   -8.5350    0.0468    0.4364 C   0  0  0  0  0  0  0  0  0  0  0  0
   -8.1824   -0.7902    1.4951 C   0  0  0  0  0  0  0  0  0  0  0  0
   -1.1519    3.8370   -1.7101 H   0  0  0  0  0  0  0  0  0  0  0  0
    0.8404    4.4251   -0.5502 H   0  0  0  0  0  0  0  0  0  0  0  0
   -0.5294    1.4465   -2.5085 H   0  0  0  0  0  0  0  0  0  0  0  0
    0.2350    2.1519    1.4392 H   0  0  0  0  0  0  0  0  0  0  0  0
    0.1654    0.5542   -0.3129 H   0  0  0  0  0  0  0  0  0  0  0  0
    1.3623    4.1202    2.4823 H   0  0  0  0  0  0  0  0  0  0  0  0
    2.4462    2.7130    2.3695 H   0  0  0  0  0  0  0  0  0  0  0  0
   -1.1495    5.2141    0.2495 H   0  0  0  0  0  0  0  0  0  0  0  0
    0.5016    3.3277   -3.2796 H   0  0  0  0  0  0  0  0  0  0  0  0
    3.4279    4.6220    1.6561 H   0  0  0  0  0  0  0  0  0  0  0  0
   -3.5751    1.2127    0.7568 H   0  0  0  0  0  0  0  0  0  0  0  0
    3.3825   -4.7609    1.4399 H   0  0  0  0  0  0  0  0  0  0  0  0
    3.4755   -0.2195    2.2136 H   0  0  0  0  0  0  0  0  0  0  0  0
    4.5822    0.0814   -1.9429 H   0  0  0  0  0  0  0  0  0  0  0  0
   -5.4588    1.6469   -1.6592 H   0  0  0  0  0  0  0  0  0  0  0  0
   -0.1038   -6.4672   -0.4147 H   0  0  0  0  0  0  0  0  0  0  0  0
    6.2589    1.7771   -1.3796 H   0  0  0  0  0  0  0  0  0  0  0  0
   -0.8739   -3.4562   -2.0945 H   0  0  0  0  0  0  0  0  0  0  0  0
    1.2287   -7.5704    0.9574 H   0  0  0  0  0  0  0  0  0  0  0  0
   -4.8197   -0.4349    1.4261 H   0  0  0  0  0  0  0  0  0  0  0  0
   -7.8392    1.3762   -1.0956 H   0  0  0  0  0  0  0  0  0  0  0  0
    4.5770    1.0686    3.5995 H   0  0  0  0  0  0  0  0  0  0  0  0
    7.2110    2.9617    0.2177 H   0  0  0  0  0  0  0  0  0  0  0  0
   -6.5532   -1.5995    2.6632 H   0  0  0  0  0  0  0  0  0  0  0  0
   -9.5784    0.1730    0.1607 H   0  0  0  0  0  0  0  0  0  0  0  0
   -8.7255   -1.9863    2.8845 H   0  0  0  0  0  0  0  0  0  0  0  0
  1 18  1  0  0  0  0
  1 19  1  0  0  0  0
  2 15  1  0  0  0  0
  2 22  1  0  0  0  0
  3 19  1  0  0  0  0
  3 21  1  0  0  0  0
  4 16  1  0  0  0  0
  4 52  1  0  0  0  0
  5 17  1  0  0  0  0
  5 53  1  0  0  0  0
  6 20  1  0  0  0  0
  6 54  1  0  0  0  0
  7 23  1  0  0  0  0
  7 26  1  0  0  0  0
  8 22  2  0  0  0  0
  9 24  2  0  0  0  0
 10 29  1  0  0  0  0
 10 62  1  0  0  0  0
 11 35  1  0  0  0  0
 11 63  1  0  0  0  0
 12 36  1  0  0  0  0
 12 66  1  0  0  0  0
 13 39  1  0  0  0  0
 13 67  1  0  0  0  0
 14 44  1  0  0  0  0
 14 70  1  0  0  0  0
 15 16  1  0  0  0  0
 15 17  1  0  0  0  0
 15 45  1  0  0  0  0
 16 18  1  0  0  0  0
 16 46  1  0  0  0  0
 17 19  1  0  0  0  0
 17 47  1  0  0  0  0
 18 20  1  0  0  0  0
 18 48  1  0  0  0  0
 19 49  1  0  0  0  0
 20 50  1  0  0  0  0
 20 51  1  0  0  0  0
 21 23  2  0  0  0  0
 21 24  1  0  0  0  0
 22 27  1  0  0  0  0
 23 28  1  0  0  0  0
 24 25  1  0  0  0  0
 25 26  1  0  0  0  0
 25 29  2  0  0  0  0
 26 30  2  0  0  0  0
 27 33  2  0  0  0  0
 27 55  1  0  0  0  0
 28 31  2  0  0  0  0
 28 32  1  0  0  0  0
 29 34  1  0  0  0  0
 30 35  1  0  0  0  0
 30 56  1  0  0  0  0
 31 36  1  0  0  0  0
 31 57  1  0  0  0  0
 32 37  2  0  0  0  0
 32 58  1  0  0  0  0
 33 38  1  0  0  0  0
 33 59  1  0  0  0  0
 34 35  2  0  0  0  0
 34 60  1  0  0  0  0
 36 39  2  0  0  0  0
 37 39  1  0  0  0  0
 37 61  1  0  0  0  0
 38 40  2  0  0  0  0
 38 41  1  0  0  0  0
 40 42  1  0  0  0  0
 40 64  1  0  0  0  0
 41 43  2  0  0  0  0
 41 65  1  0  0  0  0
 42 44  2  0  0  0  0
 42 68  1  0  0  0  0
 43 44  1  0  0  0  0
 43 69  1  0  0  0  0
M  END
> <PUBCHEM_COMPOUND_CID>
131752177

> <PUBCHEM_CONFORMER_RMSD>
1.2

> <PUBCHEM_CONFORMER_DIVERSEORDER>
1
257
46
138
92
278
281
299
314
400
44
56
148
42
28
152
332
195
69
231
315
203
412
206
78
41
285
297
303
30
366
144
368
319
208
348
8
352
309
5
135
302
384
337
35
249
173
377
418
359
178
254
95
255
263
323
204
151
164
169
4
280
6
57
205
228
149
220
331
19
162
399
265
291
168
264
361
367
274
333
60
304
101
415
397
308
134
403
156
17
63
84
119
416
355
189
66
419
260
275
246
383
207
356
198
362
237
65
37
286
374
88
340
250
120
180
45
365
176
40
402
193
179
175
388
380
373
266
154
369
223
357
343
317
262
389
10
23
143
404
350
115
240
165
212
283
351
47
71
321
318
282
210
245
292
172
288
61
289
114
411
294
72
307
83
287
267
259
390
256
322
347
378
187
2
32
385
325
252
370
236
410
82
227
33
122
34
99
215
239
382
87
104
188
316
243
16
407
272
13
387
346
413
159
147
185
349
329
358
296
408
146
139
31
29
171
106
79
258
273
324
335
279
301
376
417
310
229
401
136
336
73
341
53
284
125
354
386
398
177
105
353
339
80
269
211
217
247
396
306
181
36
238
196
372
62
76
24
174
129
313
54
270
15
300
221
167
112
123
328
94
194
89
50
58
153
268
219
20
295
271
186
55
38
214
218
199
103
393
222
201
394
86
216
202
108
124
409
253
334
381
224
192
49
261
116
161
113
3
96
251
338
375
241
133
107
70
160
118
12
312
230
21
117
342
327
109
190
75
93
233
225
277
248
140
235
11
371
127
77
163
320
51
52
158
59
142
126
9
132
391
244
68
311
81
234
293
111
91
364
14
131
405
100
182
43
184
276
242
183
209
145
121
191
414
170
74
150
90
330
141
197
344
200
110
166
130
360
326
137
226
98
305
39
290
298
102
363
379
26
128
232
67
395
27
18
155
157
25
406
7
48
22
345
97
64
85
392
213

> <PUBCHEM_MMFF94_PARTIAL_CHARGES>
63
1 -0.56
10 -0.53
11 -0.53
12 -0.53
13 -0.53
14 -0.53
15 0.28
16 0.28
17 0.28
18 0.28
19 0.56
2 -0.43
20 0.28
21 0.09
22 0.71
23 0.05
24 0.47
25 0.09
26 0.08
27 -0.14
28 0.03
29 0.08
3 -0.36
30 -0.15
31 -0.15
32 -0.15
33 -0.18
34 -0.15
35 0.08
36 0.08
37 -0.15
38 0.03
39 0.08
4 -0.68
40 -0.15
41 -0.15
42 -0.15
43 -0.15
44 0.08
5 -0.68
52 0.4
53 0.4
54 0.4
55 0.15
56 0.15
57 0.15
58 0.15
59 0.15
6 -0.68
60 0.15
61 0.15
62 0.45
63 0.45
64 0.15
65 0.15
66 0.45
67 0.45
68 0.15
69 0.15
7 -0.16
70 0.45
8 -0.57
9 -0.57

> <PUBCHEM_EFFECTIVE_ROTOR_COUNT>
9.2

> <PUBCHEM_PHARMACOPHORE_FEATURES>
21
1 1 acceptor
1 10 donor
1 11 donor
1 12 donor
1 13 donor
1 14 donor
1 3 acceptor
1 4 acceptor
1 4 donor
1 5 acceptor
1 5 donor
1 6 acceptor
1 6 donor
1 7 acceptor
1 8 acceptor
1 9 acceptor
6 1 15 16 17 18 19 rings
6 25 26 29 30 34 35 rings
6 28 31 32 36 37 39 rings
6 38 40 41 42 43 44 rings
6 7 21 23 24 25 26 rings

> <PUBCHEM_HEAVY_ATOM_COUNT>
44

> <PUBCHEM_ATOM_DEF_STEREO_COUNT>
0

> <PUBCHEM_ATOM_UDEF_STEREO_COUNT>
5

> <PUBCHEM_BOND_DEF_STEREO_COUNT>
1

> <PUBCHEM_BOND_UDEF_STEREO_COUNT>
0

> <PUBCHEM_ISOTOPIC_ATOM_COUNT>
0

> <PUBCHEM_COMPONENT_COUNT>
1

> <PUBCHEM_CACTVS_TAUTO_COUNT>
648

> <PUBCHEM_CONFORMER_ID>
07DA60F100000001

> <PUBCHEM_MMFF94_ENERGY>
136.0764

> <PUBCHEM_FEATURE_SELFOVERLAP>
106.677

> <PUBCHEM_SHAPE_FINGERPRINT>
10169797 241 18268995276007475695
10190108 129 18336551521360437798
10258939 38 17822286847389682085
12202916 173 17967533510729703723
12758862 65 18260553363447660825
12977781 61 17753599157911673725
13726171 33 17766541823528014216
14068700 686 18264770969808483997
14910700 183 18412821412730679217
15911013 46 17904482896407253421
18365409 1 18128257989589125575
19315092 285 17986675861460121931
19319366 153 18269252618237533796
20501277 246 18337124401562655595
22149856 69 18337119964735422521
22956985 138 17974847272999271030
23572383 38 18043246843522519191
3044373 233 18191883227622595443
3178227 256 18341894125315959856
404807 78 18114477732985123682
4408954 87 18342453789503257751
4435113 14 18115032888353351921
4461854 278 18337681917997753723
50009960 94 17534889798136224819
6679774 75 18189339137598268763
6700243 42 16877943799047934629
86090 222 18411987957125942040

> <PUBCHEM_SHAPE_MULTIPOLES>
823.33
17.82
8.33
2.07
46.59
13.4
0.15
-3.56
11.69
-8.46
0.89
-0.13
-0.76
2.95

> <PUBCHEM_SHAPE_SELFOVERLAP>
1813.385

> <PUBCHEM_SHAPE_VOLUME>
437.9

> <PUBCHEM_COORDINATE_TYPE>
2
5
10

$$$$
