131752175
  -OEChem-02172602513D

 62 65  0     1  0  0  0  0  0999 V2000
    5.6076   -0.6298    0.6543 O   0  0  0  0  0  0  0  0  0  0  0  0
    3.6758    0.0736   -0.4491 O   0  0  0  0  0  0  0  0  0  0  0  0
    7.8371    2.3560   -1.0722 O   0  0  0  0  0  0  0  0  0  0  0  0
    9.1615    0.0902    0.1394 O   0  0  0  0  0  0  0  0  0  0  0  0
    5.2749    1.5332   -2.2715 O   0  0  0  0  0  0  0  0  0  0  0  0
    6.6699   -2.6986    2.1196 O   0  0  0  0  0  0  0  0  0  0  0  0
   -3.4833   -1.0525   -0.4756 O   0  0  0  0  0  0  0  0  0  0  0  0
    1.7189   -0.5117    1.9633 O   0  0  0  0  0  0  0  0  0  0  0  0
   -2.3251    2.1991    0.8184 O   0  0  0  0  0  0  0  0  0  0  0  0
   -7.4991    1.4601    0.5474 O   0  0  0  0  0  0  0  0  0  0  0  0
   -5.0957    2.4178    0.9251 O   0  0  0  0  0  0  0  0  0  0  0  0
   -7.7754   -2.9343   -1.2293 O   0  0  0  0  0  0  0  0  0  0  0  0
    7.2596    1.0524   -0.9858 C   0  0  1  0  0  0  0  0  0  0  0  0
    7.7764    0.3899    0.2913 C   0  0  1  0  0  0  0  0  0  0  0  0
    5.7354    1.1709   -0.9700 C   0  0  2  0  0  0  0  0  0  0  0  0
    7.0084   -0.9016    0.5823 C   0  0  1  0  0  0  0  0  0  0  0  0
    5.0787   -0.1535   -0.5810 C   0  0  1  0  0  0  0  0  0  0  0  0
    7.4260   -1.5193    1.9131 C   0  0  0  0  0  0  0  0  0  0  0  0
    2.9457   -1.1395   -0.5436 C   0  0  0  0  0  0  0  0  0  0  0  0
    1.4820   -0.8429   -0.3988 C   0  0  0  0  0  0  0  0  0  0  0  0
    0.9355   -0.5423    0.8489 C   0  0  0  0  0  0  0  0  0  0  0  0
    0.6655   -0.8696   -1.5295 C   0  0  0  0  0  0  0  0  0  0  0  0
   -1.2436   -0.2954   -0.1649 C   0  0  0  0  0  0  0  0  0  0  0  0
   -0.4273   -0.2685    0.9658 C   0  0  0  0  0  0  0  0  0  0  0  0
   -0.6972   -0.5961   -1.4126 C   0  0  0  0  0  0  0  0  0  0  0  0
   -2.6837   -0.0070   -0.0417 C   0  0  0  0  0  0  0  0  0  0  0  0
   -3.1485    1.1662    0.4254 C   0  0  0  0  0  0  0  0  0  0  0  0
   -5.4577    0.2548    0.0577 C   0  0  0  0  0  0  0  0  0  0  0  0
   -4.8448   -0.9043   -0.4126 C   0  0  0  0  0  0  0  0  0  0  0  0
   -4.6144    1.3730    0.5073 C   0  0  0  0  0  0  0  0  0  0  0  0
   -6.8510    0.3497    0.0979 C   0  0  0  0  0  0  0  0  0  0  0  0
   -5.6226   -1.9783   -0.8461 C   0  0  0  0  0  0  0  0  0  0  0  0
   -7.6268   -0.7259   -0.3363 C   0  0  0  0  0  0  0  0  0  0  0  0
   -7.0141   -1.8877   -0.8073 C   0  0  0  0  0  0  0  0  0  0  0  0
   -2.0427    3.0592   -0.2689 C   0  0  0  0  0  0  0  0  0  0  0  0
   -7.8058    1.5125    1.9394 C   0  0  0  0  0  0  0  0  0  0  0  0
    7.6010    0.5080   -1.8741 H   0  0  0  0  0  0  0  0  0  0  0  0
    7.6832    1.0879    1.1323 H   0  0  0  0  0  0  0  0  0  0  0  0
    5.4193    1.9700   -0.2890 H   0  0  0  0  0  0  0  0  0  0  0  0
    7.1784   -1.6478   -0.2058 H   0  0  0  0  0  0  0  0  0  0  0  0
    5.2518   -0.8980   -1.3709 H   0  0  0  0  0  0  0  0  0  0  0  0
    7.2134   -0.8376    2.7434 H   0  0  0  0  0  0  0  0  0  0  0  0
    8.4891   -1.7778    1.9201 H   0  0  0  0  0  0  0  0  0  0  0  0
    7.5375    2.8712   -0.3038 H   0  0  0  0  0  0  0  0  0  0  0  0
    9.2537   -0.5394   -0.5959 H   0  0  0  0  0  0  0  0  0  0  0  0
    5.5449    0.8350   -2.8922 H   0  0  0  0  0  0  0  0  0  0  0  0
    3.2621   -1.8423    0.2372 H   0  0  0  0  0  0  0  0  0  0  0  0
    3.1410   -1.6169   -1.5121 H   0  0  0  0  0  0  0  0  0  0  0  0
    6.9485   -3.0724    2.9729 H   0  0  0  0  0  0  0  0  0  0  0  0
    1.0767   -1.0991   -2.5090 H   0  0  0  0  0  0  0  0  0  0  0  0
   -0.8490   -0.0425    1.9430 H   0  0  0  0  0  0  0  0  0  0  0  0
   -1.3188   -0.6178   -2.3044 H   0  0  0  0  0  0  0  0  0  0  0  0
    1.1690   -0.2853    2.7329 H   0  0  0  0  0  0  0  0  0  0  0  0
   -5.1474   -2.8843   -1.2137 H   0  0  0  0  0  0  0  0  0  0  0  0
   -8.7116   -0.6540   -0.3067 H   0  0  0  0  0  0  0  0  0  0  0  0
   -2.9570    3.5154   -0.6641 H   0  0  0  0  0  0  0  0  0  0  0  0
   -1.5087    2.5386   -1.0709 H   0  0  0  0  0  0  0  0  0  0  0  0
   -1.3968    3.8643    0.0945 H   0  0  0  0  0  0  0  0  0  0  0  0
   -8.7146   -2.7004   -1.1330 H   0  0  0  0  0  0  0  0  0  0  0  0
   -8.1198    2.5311    2.1833 H   0  0  0  0  0  0  0  0  0  0  0  0
   -6.9360    1.2566    2.5531 H   0  0  0  0  0  0  0  0  0  0  0  0
   -8.6306    0.8290    2.1642 H   0  0  0  0  0  0  0  0  0  0  0  0
  1 16  1  0  0  0  0
  1 17  1  0  0  0  0
  2 17  1  0  0  0  0
  2 19  1  0  0  0  0
  3 13  1  0  0  0  0
  3 44  1  0  0  0  0
  4 14  1  0  0  0  0
  4 45  1  0  0  0  0
  5 15  1  0  0  0  0
  5 46  1  0  0  0  0
  6 18  1  0  0  0  0
  6 49  1  0  0  0  0
  7 26  1  0  0  0  0
  7 29  1  0  0  0  0
  8 21  1  0  0  0  0
  8 53  1  0  0  0  0
  9 27  1  0  0  0  0
  9 35  1  0  0  0  0
 10 31  1  0  0  0  0
 10 36  1  0  0  0  0
 11 30  2  0  0  0  0
 12 34  1  0  0  0  0
 12 59  1  0  0  0  0
 13 14  1  0  0  0  0
 13 15  1  0  0  0  0
 13 37  1  0  0  0  0
 14 16  1  0  0  0  0
 14 38  1  0  0  0  0
 15 17  1  0  0  0  0
 15 39  1  0  0  0  0
 16 18  1  0  0  0  0
 16 40  1  0  0  0  0
 17 41  1  0  0  0  0
 18 42  1  0  0  0  0
 18 43  1  0  0  0  0
 19 20  1  0  0  0  0
 19 47  1  0  0  0  0
 19 48  1  0  0  0  0
 20 21  2  0  0  0  0
 20 22  1  0  0  0  0
 21 24  1  0  0  0  0
 22 25  2  0  0  0  0
 22 50  1  0  0  0  0
 23 24  2  0  0  0  0
 23 25  1  0  0  0  0
 23 26  1  0  0  0  0
 24 51  1  0  0  0  0
 25 52  1  0  0  0  0
 26 27  2  0  0  0  0
 27 30  1  0  0  0  0
 28 29  2  0  0  0  0
 28 30  1  0  0  0  0
 28 31  1  0  0  0  0
 29 32  1  0  0  0  0
 31 33  2  0  0  0  0
 32 34  2  0  0  0  0
 32 54  1  0  0  0  0
 33 34  1  0  0  0  0
 33 55  1  0  0  0  0
 35 56  1  0  0  0  0
 35 57  1  0  0  0  0
 35 58  1  0  0  0  0
 36 60  1  0  0  0  0
 36 61  1  0  0  0  0
 36 62  1  0  0  0  0
M  END
> <PUBCHEM_COMPOUND_CID>
131752175

> <PUBCHEM_CONFORMER_RMSD>
1

> <PUBCHEM_CONFORMER_DIVERSEORDER>
1
19
79
108
64
89
87
45
10
3
111
110
76
36
66
92
38
67
117
99
81
102
9
25
113
41
97
94
105
83
50
37
34
5
49
72
24
44
114
17
55
70
14
85
15
40
11
77
31
23
35
101
59
2
95
60
96
16
12
54
8
18
90
4
20
13
106
107
82
116
93
98
91
112
88
75
30
57
71
78
43
51
86
52
68
7
58
84
69
115
27
109
53
48
63
104
6
73
47
28
56
39
80
74
32
29
61
103
21
100
42
62
26
33
22
46
65

> <PUBCHEM_MMFF94_PARTIAL_CHARGES>
47
1 -0.56
10 -0.36
11 -0.57
12 -0.53
13 0.28
14 0.28
15 0.28
16 0.28
17 0.56
18 0.28
19 0.42
2 -0.56
20 -0.14
21 0.08
22 -0.15
23 0.03
24 -0.15
25 -0.15
26 0.05
27 0.09
28 0.09
29 0.08
3 -0.68
30 0.47
31 0.08
32 -0.15
33 -0.15
34 0.08
35 0.28
36 0.28
4 -0.68
44 0.4
45 0.4
46 0.4
49 0.4
5 -0.68
50 0.15
51 0.15
52 0.15
53 0.45
54 0.15
55 0.15
59 0.45
6 -0.68
7 -0.16
8 -0.53
9 -0.36

> <PUBCHEM_EFFECTIVE_ROTOR_COUNT>
8.2

> <PUBCHEM_PHARMACOPHORE_FEATURES>
20
1 1 acceptor
1 10 acceptor
1 11 acceptor
1 12 donor
1 2 acceptor
1 3 acceptor
1 3 donor
1 4 acceptor
1 4 donor
1 5 acceptor
1 5 donor
1 6 acceptor
1 6 donor
1 7 acceptor
1 8 donor
1 9 acceptor
6 1 13 14 15 16 17 rings
6 20 21 22 23 24 25 rings
6 28 29 31 32 33 34 rings
6 7 26 27 28 29 30 rings

> <PUBCHEM_HEAVY_ATOM_COUNT>
36

> <PUBCHEM_ATOM_DEF_STEREO_COUNT>
5

> <PUBCHEM_ATOM_UDEF_STEREO_COUNT>
0

> <PUBCHEM_BOND_DEF_STEREO_COUNT>
0

> <PUBCHEM_BOND_UDEF_STEREO_COUNT>
0

> <PUBCHEM_ISOTOPIC_ATOM_COUNT>
0

> <PUBCHEM_COMPONENT_COUNT>
1

> <PUBCHEM_CACTVS_TAUTO_COUNT>
15

> <PUBCHEM_CONFORMER_ID>
07DA60EF00000001

> <PUBCHEM_MMFF94_ENERGY>
124.3759

> <PUBCHEM_FEATURE_SELFOVERLAP>
101.615

> <PUBCHEM_SHAPE_FINGERPRINT>
10076449 9 17131838706874508247
10162869 55 17967809492522571438
10299344 5 18408882944979633826
10533779 47 16370732487136163248
10595046 47 18411420583488295102
11315181 36 18410012157339950831
12082328 90 18131634478450252743
12089408 11 18411700993924844726
12236239 1 18186803565612104383
14068700 675 18413392059382494349
14251764 18 18334296478946047004
14849402 71 18261398900806223796
14856354 85 18342175617973492311
15183329 4 18201726158561675680
15328684 2 18337101251287978072
15419008 47 16917344831634536328
15461852 350 18272656774276012246
15510794 2 16774082860065255695
1577012 14 18408608058735664188
15840311 113 18409730699891639396
15849732 13 13542464271630973065
16989713 51 17274532256992319959
17686467 74 18339076107568662929
18608769 82 17703787046040228327
20105231 36 15769782376607913367
21315759 40 18334856108625945770
21792961 116 16773804658291461174
23576562 1 15840970261813378065
24771750 20 17201069547028723384
249057 25 18260838085472264284
335507 130 17774723160019657367
3633792 109 17313092030371630987
4073 2 18342466924246569543
4197921 191 18335422362058499380
4339292 15 17489013973259063999
44802255 64 14045458887974749161
4516262 110 17313960757207913452

> <PUBCHEM_SHAPE_MULTIPOLES>
670.43
29.35
2.45
1.57
21.37
0.54
0.34
-1.19
2.7
-2.6
-0.03
1.88
-0.21
-5.35

> <PUBCHEM_SHAPE_SELFOVERLAP>
1454.861

> <PUBCHEM_SHAPE_VOLUME>
363.2

> <PUBCHEM_COORDINATE_TYPE>
2
5
10

$$$$
