45103630
  -OEChem-02172602283D

 79 81  0     1  0  0  0  0  0999 V2000
    0.3984   -1.7839    0.9003 O   0  0  0  0  0  0  0  0  0  0  0  0
    2.3085   -0.5152   -0.9005 O   0  0  0  0  0  0  0  0  0  0  0  0
   -1.8878   -3.3473    0.5600 O   0  0  0  0  0  0  0  0  0  0  0  0
    0.8922    0.8864    1.0256 O   0  0  0  0  0  0  0  0  0  0  0  0
    3.2809    1.1832   -2.1125 O   0  0  0  0  0  0  0  0  0  0  0  0
   -3.3873   -2.8264    2.2383 O   0  0  0  0  0  0  0  0  0  0  0  0
   -0.4543    1.9923    2.5423 O   0  0  0  0  0  0  0  0  0  0  0  0
   -2.8121    2.7773    1.5731 O   0  0  0  0  0  0  0  0  0  0  0  0
   -0.4077   -1.6523   -0.2919 C   0  0  1  0  0  0  0  0  0  0  0  0
   -0.1471   -0.2539   -0.9297 C   0  0  2  0  0  0  0  0  0  0  0  0
    1.1574   -0.4702   -1.7285 C   0  0  2  0  0  0  0  0  0  0  0  0
    0.9113   -1.8367   -2.3754 C   0  0  2  0  0  0  0  0  0  0  0  0
    0.2184   -2.6682   -1.2821 C   0  0  0  0  0  0  0  0  0  0  0  0
   -1.8653   -1.9661    0.1515 C   0  0  1  0  0  0  0  0  0  0  0  0
   -0.1429    0.9569    0.0433 C   0  0  2  0  0  0  0  0  0  0  0  0
   -3.0783   -1.7364   -0.7949 C   0  0  2  0  0  0  0  0  0  0  0  0
    2.1563   -2.5144   -2.9292 C   0  0  0  0  0  0  0  0  0  0  0  0
   -0.0588    2.2961   -0.6812 C   0  0  0  0  0  0  0  0  0  0  0  0
   -2.9808   -2.4594   -2.1408 C   0  0  0  0  0  0  0  0  0  0  0  0
   -3.4624   -0.2893   -1.0052 C   0  0  0  0  0  0  0  0  0  0  0  0
   -1.2869    2.7751   -1.4317 C   0  0  0  0  0  0  0  0  0  0  0  0
    3.3007    0.3688   -1.2027 C   0  0  0  0  0  0  0  0  0  0  0  0
   -2.2532    3.6039   -0.5855 C   0  0  0  0  0  0  0  0  0  0  0  0
    1.0528    3.0542   -0.6955 C   0  0  0  0  0  0  0  0  0  0  0  0
   -4.3132    1.9750   -0.1519 C   0  0  0  0  0  0  0  0  0  0  0  0
   -3.8971    0.5194   -0.0244 C   0  0  0  0  0  0  0  0  0  0  0  0
   -2.6960   -3.6230    1.6181 C   0  0  0  0  0  0  0  0  0  0  0  0
    0.5970    1.4471    2.2350 C   0  0  0  0  0  0  0  0  0  0  0  0
   -3.1122    2.7944    0.3735 C   0  0  0  0  0  0  0  0  0  0  0  0
    4.4439    0.2208   -0.2670 C   0  0  0  0  0  0  0  0  0  0  0  0
   -4.7767    2.3788   -1.5612 C   0  0  0  0  0  0  0  0  0  0  0  0
   -5.5051    2.2270    0.7968 C   0  0  0  0  0  0  0  0  0  0  0  0
   -2.6188   -5.0871    1.9289 C   0  0  0  0  0  0  0  0  0  0  0  0
    1.7677    1.3000    3.1591 C   0  0  0  0  0  0  0  0  0  0  0  0
    5.5679    1.0353   -0.4041 C   0  0  0  0  0  0  0  0  0  0  0  0
    4.3930   -0.7322    0.7503 C   0  0  0  0  0  0  0  0  0  0  0  0
    6.6412    0.8968    0.4762 C   0  0  0  0  0  0  0  0  0  0  0  0
    5.4661   -0.8706    1.6305 C   0  0  0  0  0  0  0  0  0  0  0  0
    6.5902   -0.0561    1.4934 C   0  0  0  0  0  0  0  0  0  0  0  0
   -0.9247   -0.0903   -1.6836 H   0  0  0  0  0  0  0  0  0  0  0  0
    1.2349    0.2888   -2.5157 H   0  0  0  0  0  0  0  0  0  0  0  0
    0.1993   -1.7027   -3.2013 H   0  0  0  0  0  0  0  0  0  0  0  0
    0.9442   -3.3181   -0.7767 H   0  0  0  0  0  0  0  0  0  0  0  0
   -0.5151   -3.3310   -1.7460 H   0  0  0  0  0  0  0  0  0  0  0  0
   -2.0209   -1.3483    1.0475 H   0  0  0  0  0  0  0  0  0  0  0  0
   -1.1044    0.9159    0.5630 H   0  0  0  0  0  0  0  0  0  0  0  0
   -3.9524   -2.1986   -0.3123 H   0  0  0  0  0  0  0  0  0  0  0  0
    2.8870   -2.7343   -2.1440 H   0  0  0  0  0  0  0  0  0  0  0  0
    2.6412   -1.8779   -3.6764 H   0  0  0  0  0  0  0  0  0  0  0  0
    1.8929   -3.4615   -3.4116 H   0  0  0  0  0  0  0  0  0  0  0  0
    0.2261   -2.6621    1.2816 H   0  0  0  0  0  0  0  0  0  0  0  0
   -2.1948   -2.0380   -2.7742 H   0  0  0  0  0  0  0  0  0  0  0  0
   -3.9227   -2.3713   -2.6955 H   0  0  0  0  0  0  0  0  0  0  0  0
   -2.7895   -3.5282   -2.0030 H   0  0  0  0  0  0  0  0  0  0  0  0
   -3.3876    0.0940   -2.0185 H   0  0  0  0  0  0  0  0  0  0  0  0
   -1.7923    1.9279   -1.8984 H   0  0  0  0  0  0  0  0  0  0  0  0
   -0.9616    3.4042   -2.2718 H   0  0  0  0  0  0  0  0  0  0  0  0
   -1.7000    4.3445    0.0066 H   0  0  0  0  0  0  0  0  0  0  0  0
   -2.9139    4.1919   -1.2306 H   0  0  0  0  0  0  0  0  0  0  0  0
    1.0779    4.0010   -1.2259 H   0  0  0  0  0  0  0  0  0  0  0  0
    1.9614    2.7674   -0.1798 H   0  0  0  0  0  0  0  0  0  0  0  0
   -3.9470    0.1013    0.9808 H   0  0  0  0  0  0  0  0  0  0  0  0
   -5.1100    3.4233   -1.5806 H   0  0  0  0  0  0  0  0  0  0  0  0
   -5.6206    1.7610   -1.8912 H   0  0  0  0  0  0  0  0  0  0  0  0
   -3.9912    2.2827   -2.3159 H   0  0  0  0  0  0  0  0  0  0  0  0
   -5.7804    3.2884    0.8061 H   0  0  0  0  0  0  0  0  0  0  0  0
   -5.2749    1.9493    1.8327 H   0  0  0  0  0  0  0  0  0  0  0  0
   -6.3870    1.6513    0.4916 H   0  0  0  0  0  0  0  0  0  0  0  0
   -3.2677   -5.3116    2.7803 H   0  0  0  0  0  0  0  0  0  0  0  0
   -1.5930   -5.3566    2.1927 H   0  0  0  0  0  0  0  0  0  0  0  0
   -2.9609   -5.6674    1.0683 H   0  0  0  0  0  0  0  0  0  0  0  0
    1.9854    0.2403    3.3142 H   0  0  0  0  0  0  0  0  0  0  0  0
    1.5269    1.7523    4.1252 H   0  0  0  0  0  0  0  0  0  0  0  0
    2.6365    1.8139    2.7400 H   0  0  0  0  0  0  0  0  0  0  0  0
    5.6267    1.7841   -1.1895 H   0  0  0  0  0  0  0  0  0  0  0  0
    3.5374   -1.3858    0.8940 H   0  0  0  0  0  0  0  0  0  0  0  0
    7.5164    1.5311    0.3698 H   0  0  0  0  0  0  0  0  0  0  0  0
    5.4267   -1.6120    2.4232 H   0  0  0  0  0  0  0  0  0  0  0  0
    7.4256   -0.1638    2.1790 H   0  0  0  0  0  0  0  0  0  0  0  0
  1  9  1  0  0  0  0
  1 51  1  0  0  0  0
  2 11  1  0  0  0  0
  2 22  1  0  0  0  0
  3 14  1  0  0  0  0
  3 27  1  0  0  0  0
  4 15  1  0  0  0  0
  4 28  1  0  0  0  0
  5 22  2  0  0  0  0
  6 27  2  0  0  0  0
  7 28  2  0  0  0  0
  8 29  2  0  0  0  0
  9 10  1  0  0  0  0
  9 13  1  0  0  0  0
  9 14  1  0  0  0  0
 10 11  1  0  0  0  0
 10 15  1  0  0  0  0
 10 40  1  0  0  0  0
 11 12  1  0  0  0  0
 11 41  1  0  0  0  0
 12 13  1  0  0  0  0
 12 17  1  0  0  0  0
 12 42  1  0  0  0  0
 13 43  1  0  0  0  0
 13 44  1  0  0  0  0
 14 16  1  0  0  0  0
 14 45  1  0  0  0  0
 15 18  1  0  0  0  0
 15 46  1  0  0  0  0
 16 19  1  0  0  0  0
 16 20  1  0  0  0  0
 16 47  1  0  0  0  0
 17 48  1  0  0  0  0
 17 49  1  0  0  0  0
 17 50  1  0  0  0  0
 18 21  1  0  0  0  0
 18 24  2  0  0  0  0
 19 52  1  0  0  0  0
 19 53  1  0  0  0  0
 19 54  1  0  0  0  0
 20 26  2  0  0  0  0
 20 55  1  0  0  0  0
 21 23  1  0  0  0  0
 21 56  1  0  0  0  0
 21 57  1  0  0  0  0
 22 30  1  0  0  0  0
 23 29  1  0  0  0  0
 23 58  1  0  0  0  0
 23 59  1  0  0  0  0
 24 60  1  0  0  0  0
 24 61  1  0  0  0  0
 25 26  1  0  0  0  0
 25 29  1  0  0  0  0
 25 31  1  0  0  0  0
 25 32  1  0  0  0  0
 26 62  1  0  0  0  0
 27 33  1  0  0  0  0
 28 34  1  0  0  0  0
 30 35  2  0  0  0  0
 30 36  1  0  0  0  0
 31 63  1  0  0  0  0
 31 64  1  0  0  0  0
 31 65  1  0  0  0  0
 32 66  1  0  0  0  0
 32 67  1  0  0  0  0
 32 68  1  0  0  0  0
 33 69  1  0  0  0  0
 33 70  1  0  0  0  0
 33 71  1  0  0  0  0
 34 72  1  0  0  0  0
 34 73  1  0  0  0  0
 34 74  1  0  0  0  0
 35 37  1  0  0  0  0
 35 75  1  0  0  0  0
 36 38  2  0  0  0  0
 36 76  1  0  0  0  0
 37 39  2  0  0  0  0
 37 77  1  0  0  0  0
 38 39  1  0  0  0  0
 38 78  1  0  0  0  0
 39 79  1  0  0  0  0
M  END
> <PUBCHEM_COMPOUND_CID>
45103630

> <PUBCHEM_CONFORMER_RMSD>
1

> <PUBCHEM_CONFORMER_DIVERSEORDER>
1
9
11
10
24
21
15
19
13
4
3
14
2
17
23
18
22
6
12
20
5
16
8
7

> <PUBCHEM_MMFF94_PARTIAL_CHARGES>
42
1 -0.68
11 0.28
14 0.28
15 0.42
16 0.14
18 -0.28
2 -0.43
20 -0.29
21 0.14
22 0.63
23 0.06
24 -0.3
25 0.2
26 -0.29
27 0.66
28 0.66
29 0.45
3 -0.43
30 0.09
33 0.06
34 0.06
35 -0.15
36 -0.15
37 -0.15
38 -0.15
39 -0.15
4 -0.43
5 -0.57
51 0.4
55 0.15
6 -0.57
60 0.15
61 0.15
62 0.15
7 -0.57
75 0.15
76 0.15
77 0.15
78 0.15
79 0.15
8 -0.57
9 0.28

> <PUBCHEM_EFFECTIVE_ROTOR_COUNT>
8.8

> <PUBCHEM_PHARMACOPHORE_FEATURES>
9
1 1 acceptor
1 1 donor
1 5 acceptor
1 6 acceptor
1 7 acceptor
1 8 acceptor
3 25 31 32 hydrophobe
5 9 10 11 12 13 rings
6 30 35 36 37 38 39 rings

> <PUBCHEM_HEAVY_ATOM_COUNT>
39

> <PUBCHEM_ATOM_DEF_STEREO_COUNT>
7

> <PUBCHEM_ATOM_UDEF_STEREO_COUNT>
0

> <PUBCHEM_BOND_DEF_STEREO_COUNT>
1

> <PUBCHEM_BOND_UDEF_STEREO_COUNT>
0

> <PUBCHEM_ISOTOPIC_ATOM_COUNT>
0

> <PUBCHEM_COMPONENT_COUNT>
1

> <PUBCHEM_CACTVS_TAUTO_COUNT>
2

> <PUBCHEM_CONFORMER_ID>
02B03A0E00000001

> <PUBCHEM_MMFF94_ENERGY>
118.7567

> <PUBCHEM_FEATURE_SELFOVERLAP>
45.681

> <PUBCHEM_SHAPE_FINGERPRINT>
10074138 170 18335687360886197442
11578080 2 17489594415490531750
12107698 1 18268420408120733255
12422481 6 18127155114901262378
12467345 10 17822283531996020176
13140716 1 18265905833343474861
13726171 33 18050037598760744708
14787075 74 17774434967239861036
18608769 82 18272650156754788669
19319366 153 18193551169629742379
20764821 26 17845931960761065073
22182313 1 17986418679040145822
3380486 145 17846510269607090895
5171179 24 17344043415542132361
563151 248 17095529486855554651
57527585 103 18189915252227956263
70251023 43 17319865258459355411
7226269 152 18272646827237457448
9981440 41 18343581824267387455

> <PUBCHEM_SHAPE_MULTIPOLES>
755.65
11.22
5.06
2.68
14.03
3.33
-0.55
-3.83
-2.61
-7.24
-1.28
0.59
1.1
1.49

> <PUBCHEM_SHAPE_SELFOVERLAP>
1578.417

> <PUBCHEM_SHAPE_VOLUME>
422.7

> <PUBCHEM_COORDINATE_TYPE>
2
5
10

$$$$
