370346
  -OEChem-02172602223D

 37 41  0     1  0  0  0  0  0999 V2000
   -3.1107    2.2903   -0.2311 O   0  0  0  0  0  0  0  0  0  0  0  0
   -5.4126   -1.3362   -0.7521 O   0  0  0  0  0  0  0  0  0  0  0  0
   -0.4494    3.3228    0.3025 O   0  0  0  0  0  0  0  0  0  0  0  0
    3.3069   -2.9919   -0.0448 O   0  0  0  0  0  0  0  0  0  0  0  0
    4.3984    2.2306   -0.3131 O   0  0  0  0  0  0  0  0  0  0  0  0
   -1.3618   -0.8579    0.5437 C   0  0  2  0  0  0  0  0  0  0  0  0
   -1.7964   -2.0872   -0.3149 C   0  0  0  0  0  0  0  0  0  0  0  0
   -2.2922    0.2440    0.1860 C   0  0  0  0  0  0  0  0  0  0  0  0
    0.0563   -0.3117    0.2610 C   0  0  0  0  0  0  0  0  0  0  0  0
   -3.3123   -2.4073   -0.2130 C   0  0  0  0  0  0  0  0  0  0  0  0
   -1.4617   -1.1826    2.0483 C   0  0  0  0  0  0  0  0  0  0  0  0
   -3.6235    0.0931   -0.2422 C   0  0  0  0  0  0  0  0  0  0  0  0
   -2.0065    1.5745    0.1023 C   0  0  0  0  0  0  0  0  0  0  0  0
    0.3744    1.0791    0.1904 C   0  0  0  0  0  0  0  0  0  0  0  0
   -4.2322   -1.2004   -0.4452 C   0  0  0  0  0  0  0  0  0  0  0  0
   -0.7019    2.1291    0.2266 C   0  0  0  0  0  0  0  0  0  0  0  0
    1.1222   -1.2269    0.1646 C   0  0  0  0  0  0  0  0  0  0  0  0
   -4.1052    1.3681   -0.4404 C   0  0  0  0  0  0  0  0  0  0  0  0
    1.6980    1.5103    0.0260 C   0  0  0  0  0  0  0  0  0  0  0  0
    2.4438   -0.7906   -0.0058 C   0  0  0  0  0  0  0  0  0  0  0  0
    2.7299    0.5729   -0.0724 C   0  0  0  0  0  0  0  0  0  0  0  0
    3.5287   -1.7886   -0.1034 C   0  0  0  0  0  0  0  0  0  0  0  0
    4.1202    1.0394   -0.2491 C   0  0  0  0  0  0  0  0  0  0  0  0
    4.9074   -1.2883   -0.2783 C   0  0  0  0  0  0  0  0  0  0  0  0
    5.1801    0.0154   -0.3457 C   0  0  0  0  0  0  0  0  0  0  0  0
   -1.2320   -2.9829   -0.0294 H   0  0  0  0  0  0  0  0  0  0  0  0
   -1.5594   -1.8938   -1.3710 H   0  0  0  0  0  0  0  0  0  0  0  0
   -3.5458   -2.8168    0.7758 H   0  0  0  0  0  0  0  0  0  0  0  0
   -3.5617   -3.1700   -0.9594 H   0  0  0  0  0  0  0  0  0  0  0  0
   -0.8111   -2.0226    2.3176 H   0  0  0  0  0  0  0  0  0  0  0  0
   -1.1628   -0.3263    2.6663 H   0  0  0  0  0  0  0  0  0  0  0  0
   -2.4834   -1.4437    2.3456 H   0  0  0  0  0  0  0  0  0  0  0  0
    0.9187   -2.2920    0.2438 H   0  0  0  0  0  0  0  0  0  0  0  0
   -5.0546    1.7763   -0.7556 H   0  0  0  0  0  0  0  0  0  0  0  0
    1.9208    2.5725   -0.0369 H   0  0  0  0  0  0  0  0  0  0  0  0
    5.7008   -2.0241   -0.3512 H   0  0  0  0  0  0  0  0  0  0  0  0
    6.1998    0.3617   -0.4744 H   0  0  0  0  0  0  0  0  0  0  0  0
  1 13  1  0  0  0  0
  1 18  1  0  0  0  0
  2 15  2  0  0  0  0
  3 16  2  0  0  0  0
  4 22  2  0  0  0  0
  5 23  2  0  0  0  0
  6  7  1  0  0  0  0
  6  8  1  0  0  0  0
  6  9  1  0  0  0  0
  6 11  1  0  0  0  0
  7 10  1  0  0  0  0
  7 26  1  0  0  0  0
  7 27  1  0  0  0  0
  8 12  1  0  0  0  0
  8 13  2  0  0  0  0
  9 14  2  0  0  0  0
  9 17  1  0  0  0  0
 10 15  1  0  0  0  0
 10 28  1  0  0  0  0
 10 29  1  0  0  0  0
 11 30  1  0  0  0  0
 11 31  1  0  0  0  0
 11 32  1  0  0  0  0
 12 15  1  0  0  0  0
 12 18  2  0  0  0  0
 13 16  1  0  0  0  0
 14 16  1  0  0  0  0
 14 19  1  0  0  0  0
 17 20  2  0  0  0  0
 17 33  1  0  0  0  0
 18 34  1  0  0  0  0
 19 21  2  0  0  0  0
 19 35  1  0  0  0  0
 20 21  1  0  0  0  0
 20 22  1  0  0  0  0
 21 23  1  0  0  0  0
 22 24  1  0  0  0  0
 23 25  1  0  0  0  0
 24 25  2  0  0  0  0
 24 36  1  0  0  0  0
 25 37  1  0  0  0  0
M  END
> <PUBCHEM_COMPOUND_CID>
370346

> <PUBCHEM_CONFORMER_RMSD>
0.6

> <PUBCHEM_CONFORMER_DIVERSEORDER>
1

> <PUBCHEM_MMFF94_PARTIAL_CHARGES>
28
1 -0.28
10 0.06
12 -0.09
13 0.05
14 0.09
15 0.6
16 0.57
17 -0.15
18 -0.01
19 -0.15
2 -0.57
20 0.09
21 0.09
22 0.47
23 0.47
24 -0.14
25 -0.14
3 -0.57
33 0.15
34 0.15
35 0.15
36 0.15
37 0.15
4 -0.57
5 -0.57
6 0.32
8 -0.18
9 -0.14

> <PUBCHEM_EFFECTIVE_ROTOR_COUNT>
0.4

> <PUBCHEM_PHARMACOPHORE_FEATURES>
10
1 1 acceptor
1 2 acceptor
1 3 acceptor
1 4 acceptor
1 5 acceptor
5 1 8 12 13 18 rings
6 20 21 22 23 24 25 rings
6 6 7 8 10 12 15 rings
6 6 8 9 13 14 16 rings
6 9 14 17 19 20 21 rings

> <PUBCHEM_HEAVY_ATOM_COUNT>
25

> <PUBCHEM_ATOM_DEF_STEREO_COUNT>
1

> <PUBCHEM_ATOM_UDEF_STEREO_COUNT>
0

> <PUBCHEM_BOND_DEF_STEREO_COUNT>
0

> <PUBCHEM_BOND_UDEF_STEREO_COUNT>
0

> <PUBCHEM_ISOTOPIC_ATOM_COUNT>
0

> <PUBCHEM_COMPONENT_COUNT>
1

> <PUBCHEM_CACTVS_TAUTO_COUNT>
2

> <PUBCHEM_CONFORMER_ID>
0005A6AA00000001

> <PUBCHEM_MMFF94_ENERGY>
72.0878

> <PUBCHEM_FEATURE_SELFOVERLAP>
51.024

> <PUBCHEM_SHAPE_FINGERPRINT>
10369192 42 16482717944193708960
10616163 171 18413110545908677614
10693767 8 18128514125034601063
10967382 1 18339080496460626472
11578080 2 17560502014870658065
12107183 9 17762055441510902834
12788726 201 18335696113744677843
13140716 1 18266470819148045097
13224815 77 18412547613250812648
138480 1 15168830664216000049
13944108 23 16459090065988845637
14790565 3 17980768134467401265
15196674 1 18410855451575325941
16945 1 18051410669818813769
17349148 13 18187081754632793992
17492 89 18339361859927378446
18681886 176 18413666921042336402
19591789 44 18411134706428614315
200 152 18131350821192201322
20645477 70 18343869905341090718
20775438 99 16833978950169646415
21267235 1 18411144644603200623
221357 26 18410004464552220975
221490 88 18265054819711782739
23352939 185 18201441423867934601
23402539 116 18342172241817369717
23557571 272 18273220789381134366
23558518 356 18192723241210058536
23559900 14 18412539899722073416
2871803 45 18409729590734665078
3004659 81 18261107465894545318
335352 9 18194682566350620413
3380486 145 17901406789464857355
34934 24 18410571799292724376
350125 39 18412265030626532121
4214541 1 18410856529722763652
46194498 28 17605265379927249525
463206 1 18197216055958589359
474 4 17531253902392857756
5104073 3 18411700967458644544
5283173 99 18261103041677589925
67856867 119 18408315597733588392
9709674 26 18337399249104283866

> <PUBCHEM_SHAPE_MULTIPOLES>
485.14
10.08
3.03
0.86
3.98
0.56
0.34
-2.27
-2.6
-0.24
-0.06
-0.43
-0.24
-0.13

> <PUBCHEM_SHAPE_SELFOVERLAP>
1120.083

> <PUBCHEM_SHAPE_VOLUME>
248.8

> <PUBCHEM_COORDINATE_TYPE>
2
5
10

$$$$
