134785909
  -OEChem-02172602303D

103105  0     1  0  0  0  0  0999 V2000
   13.0492   -0.8243    1.1492 O   0  0  0  0  0  0  0  0  0  0  0  0
   11.8069    2.6328   -0.6976 O   0  0  0  0  0  0  0  0  0  0  0  0
   10.1386   -0.6967   -1.6210 O   0  0  0  0  0  0  0  0  0  0  0  0
  -14.2809   -1.3592    0.2779 O   0  0  0  0  0  0  0  0  0  0  0  0
  -13.9023   -3.1116    1.7348 O   0  0  0  0  0  0  0  0  0  0  0  0
   11.7213   -0.4546    0.7546 C   0  0  2  0  0  0  0  0  0  0  0  0
   12.9433   -0.2213   -0.1544 C   0  0  1  0  0  0  0  0  0  0  0  0
   11.1280    0.7126    1.5556 C   0  0  0  0  0  0  0  0  0  0  0  0
   13.6312    1.1198   -0.2221 C   0  0  0  0  0  0  0  0  0  0  0  0
   12.0959    1.9285    1.6070 C   0  0  0  0  0  0  0  0  0  0  0  0
   12.7710    2.2709    0.2822 C   0  0  2  0  0  0  0  0  0  0  0  0
   10.8378   -1.6342    0.4906 C   0  0  0  0  0  0  0  0  0  0  0  0
   13.2829   -1.1697   -1.2684 C   0  0  0  0  0  0  0  0  0  0  0  0
    9.7755    1.1371    0.9414 C   0  0  0  0  0  0  0  0  0  0  0  0
   10.8685    0.2840    3.0185 C   0  0  0  0  0  0  0  0  0  0  0  0
    9.8740   -1.4182   -0.6611 C   0  0  0  0  0  0  0  0  0  0  0  0
    8.5554   -2.1276   -0.5784 C   0  0  0  0  0  0  0  0  0  0  0  0
    8.5995   -3.6205   -0.4733 C   0  0  0  0  0  0  0  0  0  0  0  0
    7.4712   -1.3318   -0.5782 C   0  0  0  0  0  0  0  0  0  0  0  0
    6.0900   -1.7686   -0.5122 C   0  0  0  0  0  0  0  0  0  0  0  0
    5.0565   -0.9089   -0.5165 C   0  0  0  0  0  0  0  0  0  0  0  0
    3.6295   -1.2486   -0.4567 C   0  0  0  0  0  0  0  0  0  0  0  0
  -11.0442   -0.1529   -1.2672 C   0  0  0  0  0  0  0  0  0  0  0  0
  -12.5474   -0.4983   -1.1306 C   0  0  0  0  0  0  0  0  0  0  0  0
  -12.8844   -1.0817    0.2340 C   0  0  1  0  0  0  0  0  0  0  0  0
  -12.5269   -0.0904    1.3373 C   0  0  0  0  0  0  0  0  0  0  0  0
  -10.5128    0.5689   -0.0167 C   0  0  0  0  0  0  0  0  0  0  0  0
  -11.1967    0.6054    1.1518 C   0  0  0  0  0  0  0  0  0  0  0  0
    3.2751   -2.7133   -0.3827 C   0  0  0  0  0  0  0  0  0  0  0  0
  -10.2320   -1.4485   -1.4813 C   0  0  0  0  0  0  0  0  0  0  0  0
  -10.8958    0.7272   -2.5290 C   0  0  0  0  0  0  0  0  0  0  0  0
    2.7317   -0.2383   -0.4719 C   0  0  0  0  0  0  0  0  0  0  0  0
  -10.7353    1.3303    2.3945 C   0  0  0  0  0  0  0  0  0  0  0  0
   -9.2392    1.2201   -0.1070 C   0  0  0  0  0  0  0  0  0  0  0  0
    1.2853   -0.3400   -0.4211 C   0  0  0  0  0  0  0  0  0  0  0  0
  -14.6518   -2.4069    1.0723 C   0  0  0  0  0  0  0  0  0  0  0  0
   -8.1721    1.7659   -0.1820 C   0  0  0  0  0  0  0  0  0  0  0  0
    0.3876    0.6615   -0.4358 C   0  0  0  0  0  0  0  0  0  0  0  0
  -16.1395   -2.5807    1.0206 C   0  0  0  0  0  0  0  0  0  0  0  0
   -6.9022    2.4235   -0.2727 C   0  0  0  0  0  0  0  0  0  0  0  0
   -1.0589    0.5596   -0.3852 C   0  0  0  0  0  0  0  0  0  0  0  0
   -6.9241    3.9256   -0.3654 C   0  0  0  0  0  0  0  0  0  0  0  0
   -5.7984    1.6496   -0.2750 C   0  0  0  0  0  0  0  0  0  0  0  0
   -1.9568    1.5698   -0.4003 C   0  0  0  0  0  0  0  0  0  0  0  0
   -4.4179    2.0891   -0.3436 C   0  0  0  0  0  0  0  0  0  0  0  0
   -3.3838    1.2299   -0.3395 C   0  0  0  0  0  0  0  0  0  0  0  0
   -1.6024    3.0345   -0.4750 C   0  0  0  0  0  0  0  0  0  0  0  0
   13.9294    1.3229   -1.2581 H   0  0  0  0  0  0  0  0  0  0  0  0
   14.5545    1.0673    0.3687 H   0  0  0  0  0  0  0  0  0  0  0  0
   12.8883    1.7342    2.3431 H   0  0  0  0  0  0  0  0  0  0  0  0
   11.5496    2.8090    1.9699 H   0  0  0  0  0  0  0  0  0  0  0  0
   13.4092    3.1502    0.4297 H   0  0  0  0  0  0  0  0  0  0  0  0
   11.4125   -2.5408    0.2727 H   0  0  0  0  0  0  0  0  0  0  0  0
   10.2588   -1.8708    1.3892 H   0  0  0  0  0  0  0  0  0  0  0  0
   12.7689   -0.8732   -2.1877 H   0  0  0  0  0  0  0  0  0  0  0  0
   14.3604   -1.1459   -1.4668 H   0  0  0  0  0  0  0  0  0  0  0  0
   13.0302   -2.2102   -1.0512 H   0  0  0  0  0  0  0  0  0  0  0  0
    8.9970    0.3968    1.1426 H   0  0  0  0  0  0  0  0  0  0  0  0
    9.8286    1.3058   -0.1357 H   0  0  0  0  0  0  0  0  0  0  0  0
    9.4226    2.0706    1.3964 H   0  0  0  0  0  0  0  0  0  0  0  0
   10.1173   -0.5089    3.0900 H   0  0  0  0  0  0  0  0  0  0  0  0
   10.5057    1.1282    3.6164 H   0  0  0  0  0  0  0  0  0  0  0  0
   11.7832   -0.0925    3.4902 H   0  0  0  0  0  0  0  0  0  0  0  0
   12.2850    2.8754   -1.5087 H   0  0  0  0  0  0  0  0  0  0  0  0
    9.3707   -4.0241   -1.1387 H   0  0  0  0  0  0  0  0  0  0  0  0
    8.8391   -3.9239    0.5507 H   0  0  0  0  0  0  0  0  0  0  0  0
    7.6585   -4.0959   -0.7609 H   0  0  0  0  0  0  0  0  0  0  0  0
    7.6082   -0.2544   -0.6571 H   0  0  0  0  0  0  0  0  0  0  0  0
    5.9107   -2.8361   -0.4518 H   0  0  0  0  0  0  0  0  0  0  0  0
    5.2801    0.1567   -0.5734 H   0  0  0  0  0  0  0  0  0  0  0  0
  -12.8607   -1.1965   -1.9185 H   0  0  0  0  0  0  0  0  0  0  0  0
  -13.1609    0.4009   -1.2887 H   0  0  0  0  0  0  0  0  0  0  0  0
  -12.3097   -2.0074    0.3627 H   0  0  0  0  0  0  0  0  0  0  0  0
  -12.5327   -0.6268    2.2950 H   0  0  0  0  0  0  0  0  0  0  0  0
  -13.3125    0.6728    1.4202 H   0  0  0  0  0  0  0  0  0  0  0  0
  -10.6269   -2.0264   -2.3248 H   0  0  0  0  0  0  0  0  0  0  0  0
  -10.2496   -2.0950   -0.5972 H   0  0  0  0  0  0  0  0  0  0  0  0
   -9.1801   -1.2312   -1.7020 H   0  0  0  0  0  0  0  0  0  0  0  0
  -11.3460    0.2392   -3.4017 H   0  0  0  0  0  0  0  0  0  0  0  0
   -9.8459    0.9195   -2.7768 H   0  0  0  0  0  0  0  0  0  0  0  0
  -11.3912    1.6965   -2.3982 H   0  0  0  0  0  0  0  0  0  0  0  0
    3.7077   -3.1669    0.5162 H   0  0  0  0  0  0  0  0  0  0  0  0
    2.2022   -2.9099   -0.3430 H   0  0  0  0  0  0  0  0  0  0  0  0
    3.6557   -3.2443   -1.2625 H   0  0  0  0  0  0  0  0  0  0  0  0
    3.0959    0.7879   -0.5276 H   0  0  0  0  0  0  0  0  0  0  0  0
  -11.5017    2.0447    2.7144 H   0  0  0  0  0  0  0  0  0  0  0  0
   -9.8081    1.8936    2.2667 H   0  0  0  0  0  0  0  0  0  0  0  0
  -10.5735    0.6135    3.2066 H   0  0  0  0  0  0  0  0  0  0  0  0
    0.8759   -1.3448   -0.3643 H   0  0  0  0  0  0  0  0  0  0  0  0
  -16.6310   -1.6770    1.3896 H   0  0  0  0  0  0  0  0  0  0  0  0
  -16.4516   -2.7983   -0.0039 H   0  0  0  0  0  0  0  0  0  0  0  0
  -16.4291   -3.4203    1.6590 H   0  0  0  0  0  0  0  0  0  0  0  0
    0.7970    1.6663   -0.4926 H   0  0  0  0  0  0  0  0  0  0  0  0
   -1.4228   -0.4666   -0.3290 H   0  0  0  0  0  0  0  0  0  0  0  0
   -7.5479    4.2413   -1.2093 H   0  0  0  0  0  0  0  0  0  0  0  0
   -7.3490    4.3519    0.5501 H   0  0  0  0  0  0  0  0  0  0  0  0
   -5.9405    4.3761   -0.5110 H   0  0  0  0  0  0  0  0  0  0  0  0
   -5.9287    0.5684   -0.2092 H   0  0  0  0  0  0  0  0  0  0  0  0
   -4.2345    3.1555   -0.3946 H   0  0  0  0  0  0  0  0  0  0  0  0
   -3.6066    0.1640   -0.2852 H   0  0  0  0  0  0  0  0  0  0  0  0
   -1.9802    3.5652    0.4062 H   0  0  0  0  0  0  0  0  0  0  0  0
   -2.0377    3.4885   -1.3723 H   0  0  0  0  0  0  0  0  0  0  0  0
   -0.5297    3.2310   -0.5181 H   0  0  0  0  0  0  0  0  0  0  0  0
  1  6  1  0  0  0  0
  1  7  1  0  0  0  0
  2 11  1  0  0  0  0
  2 64  1  0  0  0  0
  3 16  2  0  0  0  0
  4 25  1  0  0  0  0
  4 36  1  0  0  0  0
  5 36  2  0  0  0  0
  6  7  1  0  0  0  0
  6  8  1  0  0  0  0
  6 12  1  0  0  0  0
  7  9  1  0  0  0  0
  7 13  1  0  0  0  0
  8 10  1  0  0  0  0
  8 14  1  0  0  0  0
  8 15  1  0  0  0  0
  9 11  1  0  0  0  0
  9 48  1  0  0  0  0
  9 49  1  0  0  0  0
 10 11  1  0  0  0  0
 10 50  1  0  0  0  0
 10 51  1  0  0  0  0
 11 52  1  0  0  0  0
 12 16  1  0  0  0  0
 12 53  1  0  0  0  0
 12 54  1  0  0  0  0
 13 55  1  0  0  0  0
 13 56  1  0  0  0  0
 13 57  1  0  0  0  0
 14 58  1  0  0  0  0
 14 59  1  0  0  0  0
 14 60  1  0  0  0  0
 15 61  1  0  0  0  0
 15 62  1  0  0  0  0
 15 63  1  0  0  0  0
 16 17  1  0  0  0  0
 17 18  1  0  0  0  0
 17 19  2  0  0  0  0
 18 65  1  0  0  0  0
 18 66  1  0  0  0  0
 18 67  1  0  0  0  0
 19 20  1  0  0  0  0
 19 68  1  0  0  0  0
 20 21  2  0  0  0  0
 20 69  1  0  0  0  0
 21 22  1  0  0  0  0
 21 70  1  0  0  0  0
 22 29  1  0  0  0  0
 22 32  2  0  0  0  0
 23 24  1  0  0  0  0
 23 27  1  0  0  0  0
 23 30  1  0  0  0  0
 23 31  1  0  0  0  0
 24 25  1  0  0  0  0
 24 71  1  0  0  0  0
 24 72  1  0  0  0  0
 25 26  1  0  0  0  0
 25 73  1  0  0  0  0
 26 28  1  0  0  0  0
 26 74  1  0  0  0  0
 26 75  1  0  0  0  0
 27 28  2  0  0  0  0
 27 34  1  0  0  0  0
 28 33  1  0  0  0  0
 29 82  1  0  0  0  0
 29 83  1  0  0  0  0
 29 84  1  0  0  0  0
 30 76  1  0  0  0  0
 30 77  1  0  0  0  0
 30 78  1  0  0  0  0
 31 79  1  0  0  0  0
 31 80  1  0  0  0  0
 31 81  1  0  0  0  0
 32 35  1  0  0  0  0
 32 85  1  0  0  0  0
 33 86  1  0  0  0  0
 33 87  1  0  0  0  0
 33 88  1  0  0  0  0
 34 37  3  0  0  0  0
 35 38  2  0  0  0  0
 35 89  1  0  0  0  0
 36 39  1  0  0  0  0
 37 40  1  0  0  0  0
 38 41  1  0  0  0  0
 38 93  1  0  0  0  0
 39 90  1  0  0  0  0
 39 91  1  0  0  0  0
 39 92  1  0  0  0  0
 40 42  1  0  0  0  0
 40 43  2  0  0  0  0
 41 44  2  0  0  0  0
 41 94  1  0  0  0  0
 42 95  1  0  0  0  0
 42 96  1  0  0  0  0
 42 97  1  0  0  0  0
 43 45  1  0  0  0  0
 43 98  1  0  0  0  0
 44 46  1  0  0  0  0
 44 47  1  0  0  0  0
 45 46  2  0  0  0  0
 45 99  1  0  0  0  0
 46100  1  0  0  0  0
 47101  1  0  0  0  0
 47102  1  0  0  0  0
 47103  1  0  0  0  0
M  END
> <PUBCHEM_COMPOUND_CID>
134785909

> <PUBCHEM_CONFORMER_RMSD>
1.4

> <PUBCHEM_CONFORMER_DIVERSEORDER>
1
29
117
136
49
109
46
34
135
112
71
36
83
93
42
53
63
18
98
21
73
41
90
55
137
32
80
38
78
131
82
44
76
132
59
50
81
94
62
121
108
27
35
74
2
91
66
30
127
48
95
133
28
115
124
97
20
134
75
111
88
37
122
84
47
31
17
10
106
96
101
26
113
110
57
119
22
100
14
68
52
77
15
105
102
43
40
107
54
92
129
9
103
61
120
130
86
79
24
4
104
114
72
65
5
126
99
118
116
125
25
128
89
16
69
60
19
87
67
85
8
56
45
58
70
123
64
51
3
39
13
7
23
33
12
11
6

> <PUBCHEM_MMFF94_PARTIAL_CHARGES>
52
1 -0.3
100 0.15
11 0.28
12 0.16
13 0.09
16 0.49
17 -0.12
18 0.14
19 -0.15
2 -0.68
20 -0.15
21 -0.15
22 -0.14
23 0.14
25 0.28
26 0.14
27 -0.07
28 -0.28
29 0.14
3 -0.57
32 -0.15
33 0.14
34 -0.06
35 -0.15
36 0.66
37 -0.06
38 -0.15
39 0.06
4 -0.43
40 -0.07
41 -0.15
42 0.14
43 -0.15
44 -0.14
45 -0.15
46 -0.15
47 0.14
5 -0.57
6 -0.04
64 0.4
68 0.15
69 0.15
7 -0.04
70 0.15
8 0.09
85 0.15
89 0.15
9 0.09
93 0.15
94 0.15
98 0.15
99 0.15

> <PUBCHEM_EFFECTIVE_ROTOR_COUNT>
12.8

> <PUBCHEM_PHARMACOPHORE_FEATURES>
13
1 1 acceptor
1 18 hydrophobe
1 2 acceptor
1 2 donor
1 29 hydrophobe
1 3 acceptor
1 42 hydrophobe
1 47 hydrophobe
1 5 acceptor
3 23 30 31 hydrophobe
3 8 14 15 hydrophobe
6 23 24 25 26 27 28 rings
7 1 6 7 8 9 10 11 rings

> <PUBCHEM_HEAVY_ATOM_COUNT>
47

> <PUBCHEM_ATOM_DEF_STEREO_COUNT>
4

> <PUBCHEM_ATOM_UDEF_STEREO_COUNT>
0

> <PUBCHEM_BOND_DEF_STEREO_COUNT>
7

> <PUBCHEM_BOND_UDEF_STEREO_COUNT>
0

> <PUBCHEM_ISOTOPIC_ATOM_COUNT>
0

> <PUBCHEM_COMPONENT_COUNT>
1

> <PUBCHEM_CACTVS_TAUTO_COUNT>
142

> <PUBCHEM_CONFORMER_ID>
0808AB7500000001

> <PUBCHEM_MMFF94_ENERGY>
103.9505

> <PUBCHEM_FEATURE_SELFOVERLAP>
65.975

> <PUBCHEM_SHAPE_FINGERPRINT>
12013929 2 7853568024248250452
12013929 94 18412545388906185269
12559415 86 12751244683555388113
12559415 90 14057001611896246231
14344974 52 18272929406669349876
15065858 18 18337107839451382796
15145343 6 16773785983984746058
16728433 110 18341328912521149268
24893992 56 18408040707416762312
3991529 128 14189575239569133913
57303763 39 17632007633467225847

> <PUBCHEM_SHAPE_MULTIPOLES>
937.89
96.68
3.47
1.69
59.2
0.06
-0.71
-30.13
-25.61
2.58
-0.03
1.32
0.01
5.47

> <PUBCHEM_SHAPE_SELFOVERLAP>
1921.097

> <PUBCHEM_SHAPE_VOLUME>
539.2

> <PUBCHEM_COORDINATE_TYPE>
2
5
10

$$$$
