6432240
  -OEChem-02172602223D

 42 42  0     1  0  0  0  0  0999 V2000
   -3.3039   -0.5697    1.1546 O   0  0  0  0  0  0  0  0  0  0  0  0
   -1.2553   -0.0252    0.0237 C   0  0  1  0  0  0  0  0  0  0  0  0
   -2.7519   -0.3248   -0.1379 C   0  0  0  0  0  0  0  0  0  0  0  0
   -1.0885    1.2942    0.8109 C   0  0  0  0  0  0  0  0  0  0  0  0
   -0.5473   -1.2216    0.6942 C   0  0  0  0  0  0  0  0  0  0  0  0
    0.3502    1.8039    1.0104 C   0  0  0  0  0  0  0  0  0  0  0  0
   -2.9645   -1.5634   -1.0041 C   0  0  0  0  0  0  0  0  0  0  0  0
   -3.4752    0.8806   -0.7302 C   0  0  0  0  0  0  0  0  0  0  0  0
    0.5172   -1.8065   -0.1969 C   0  0  0  0  0  0  0  0  0  0  0  0
    1.1849    1.9008   -0.2453 C   0  0  0  0  0  0  0  0  0  0  0  0
    1.8534   -1.6751   -0.0870 C   0  0  0  0  0  0  0  0  0  0  0  0
    2.5432   -0.8844    0.9987 C   0  0  0  0  0  0  0  0  0  0  0  0
    3.1612    0.4442    0.5400 C   0  0  0  0  0  0  0  0  0  0  0  0
    2.3759    1.2955   -0.4226 C   0  0  0  0  0  0  0  0  0  0  0  0
    0.6316    2.7931   -1.3284 C   0  0  0  0  0  0  0  0  0  0  0  0
    2.7690   -2.3416   -1.0800 C   0  0  0  0  0  0  0  0  0  0  0  0
   -0.8408    0.1319   -0.9814 H   0  0  0  0  0  0  0  0  0  0  0  0
   -1.5482    1.2000    1.8032 H   0  0  0  0  0  0  0  0  0  0  0  0
   -1.6156    2.1117    0.3092 H   0  0  0  0  0  0  0  0  0  0  0  0
   -1.2285   -2.0364    0.9603 H   0  0  0  0  0  0  0  0  0  0  0  0
   -0.1358   -0.9195    1.6606 H   0  0  0  0  0  0  0  0  0  0  0  0
    0.8420    1.1958    1.7728 H   0  0  0  0  0  0  0  0  0  0  0  0
    0.2944    2.8076    1.4538 H   0  0  0  0  0  0  0  0  0  0  0  0
   -4.0343   -1.7183   -1.1919 H   0  0  0  0  0  0  0  0  0  0  0  0
   -2.4685   -1.4659   -1.9755 H   0  0  0  0  0  0  0  0  0  0  0  0
   -2.6275   -2.4881   -0.5274 H   0  0  0  0  0  0  0  0  0  0  0  0
   -3.6264    1.6847   -0.0022 H   0  0  0  0  0  0  0  0  0  0  0  0
   -4.4905    0.5993   -1.0378 H   0  0  0  0  0  0  0  0  0  0  0  0
   -2.9660    1.2732   -1.6166 H   0  0  0  0  0  0  0  0  0  0  0  0
    0.1280   -2.3981   -1.0246 H   0  0  0  0  0  0  0  0  0  0  0  0
   -4.2508   -0.7627    1.0451 H   0  0  0  0  0  0  0  0  0  0  0  0
    1.8803   -0.6986    1.8465 H   0  0  0  0  0  0  0  0  0  0  0  0
    3.3410   -1.5064    1.4273 H   0  0  0  0  0  0  0  0  0  0  0  0
    4.1233    0.2196    0.0588 H   0  0  0  0  0  0  0  0  0  0  0  0
    3.4204    1.0457    1.4205 H   0  0  0  0  0  0  0  0  0  0  0  0
    2.8865    1.4588   -1.3717 H   0  0  0  0  0  0  0  0  0  0  0  0
   -0.2932    2.3799   -1.7417 H   0  0  0  0  0  0  0  0  0  0  0  0
    1.3325    2.9216   -2.1602 H   0  0  0  0  0  0  0  0  0  0  0  0
    0.4185    3.7887   -0.9252 H   0  0  0  0  0  0  0  0  0  0  0  0
    2.2190   -2.9236   -1.8272 H   0  0  0  0  0  0  0  0  0  0  0  0
    3.4512   -3.0264   -0.5658 H   0  0  0  0  0  0  0  0  0  0  0  0
    3.3637   -1.5955   -1.6162 H   0  0  0  0  0  0  0  0  0  0  0  0
  1  3  1  0  0  0  0
  1 31  1  0  0  0  0
  2  3  1  0  0  0  0
  2  4  1  0  0  0  0
  2  5  1  0  0  0  0
  2 17  1  0  0  0  0
  3  7  1  0  0  0  0
  3  8  1  0  0  0  0
  4  6  1  0  0  0  0
  4 18  1  0  0  0  0
  4 19  1  0  0  0  0
  5  9  1  0  0  0  0
  5 20  1  0  0  0  0
  5 21  1  0  0  0  0
  6 10  1  0  0  0  0
  6 22  1  0  0  0  0
  6 23  1  0  0  0  0
  7 24  1  0  0  0  0
  7 25  1  0  0  0  0
  7 26  1  0  0  0  0
  8 27  1  0  0  0  0
  8 28  1  0  0  0  0
  8 29  1  0  0  0  0
  9 11  2  0  0  0  0
  9 30  1  0  0  0  0
 10 14  2  0  0  0  0
 10 15  1  0  0  0  0
 11 12  1  0  0  0  0
 11 16  1  0  0  0  0
 12 13  1  0  0  0  0
 12 32  1  0  0  0  0
 12 33  1  0  0  0  0
 13 14  1  0  0  0  0
 13 34  1  0  0  0  0
 13 35  1  0  0  0  0
 14 36  1  0  0  0  0
 15 37  1  0  0  0  0
 15 38  1  0  0  0  0
 15 39  1  0  0  0  0
 16 40  1  0  0  0  0
 16 41  1  0  0  0  0
 16 42  1  0  0  0  0
M  END
> <PUBCHEM_COMPOUND_CID>
6432240

> <PUBCHEM_CONFORMER_RMSD>
0.6

> <PUBCHEM_CONFORMER_DIVERSEORDER>
2
13
31
22
19
29
5
17
14
28
21
23
7
4
16
25
20
10
30
8
26
6
24
12
9
11
18
3
1
15
27

> <PUBCHEM_MMFF94_PARTIAL_CHARGES>
15
1 -0.68
10 -0.28
11 -0.28
12 0.14
13 0.14
14 -0.29
15 0.14
16 0.14
3 0.28
30 0.15
31 0.4
36 0.15
5 0.14
6 0.14
9 -0.29

> <PUBCHEM_EFFECTIVE_ROTOR_COUNT>
2.2

> <PUBCHEM_PHARMACOPHORE_FEATURES>
3
1 1 acceptor
1 1 donor
3 3 7 8 hydrophobe

> <PUBCHEM_HEAVY_ATOM_COUNT>
16

> <PUBCHEM_ATOM_DEF_STEREO_COUNT>
1

> <PUBCHEM_ATOM_UDEF_STEREO_COUNT>
0

> <PUBCHEM_BOND_DEF_STEREO_COUNT>
2

> <PUBCHEM_BOND_UDEF_STEREO_COUNT>
0

> <PUBCHEM_ISOTOPIC_ATOM_COUNT>
0

> <PUBCHEM_COMPONENT_COUNT>
1

> <PUBCHEM_CACTVS_TAUTO_COUNT>
1

> <PUBCHEM_CONFORMER_ID>
006225F000000002

> <PUBCHEM_MMFF94_ENERGY>
41.5363

> <PUBCHEM_FEATURE_SELFOVERLAP>
15.223

> <PUBCHEM_SHAPE_FINGERPRINT>
10062212 137 18340755031474740563
104564 63 18339646616306095208
10922523 26 18335414664886215877
10980938 120 18340204188844112074
10989021 7 18340211765171761978
11132069 177 18270948094799649410
116883 192 18192141595026822492
12654215 9 18335695023034071620
13140716 1 17978794837074214288
14181834 199 18262230131500973780
14251717 144 18340196488052295983
14251745 187 18189594095431251725
14817 1 16612806821200252340
15536298 74 18202000989081294490
15775835 57 18198627828925011597
15881359 60 18051937434630477284
16945 1 18201997741769559760
17357779 13 18196362620444870862
17990270 104 18408886247824996938
18186145 218 18260548870890398971
20201158 50 18409163320386395738
20511035 2 17976813513137172360
20606313 2 18335975411241534135
20645477 70 18337102479727563071
21501502 16 18192713573381100059
22889148 1 17325217225500955846
2334 1 18410577245168792008
23388829 49 18342174483521409192
23402539 116 18339626864083985794
23419403 2 14864181611680766130
23463225 33 18335415785650971656
238 59 17976808015415704575
2748010 2 18338232639967675980
2897 32 18339080522394155368
5939293 188 18334848433488181028
7364860 26 18272090530282933216
81228 2 17905329520144350344

> <PUBCHEM_SHAPE_MULTIPOLES>
323.4
5.36
2.88
1.19
2.47
0.6
0.05
-1.58
0.4
-1.43
0.94
0.02
0.15
0.07

> <PUBCHEM_SHAPE_SELFOVERLAP>
633.815

> <PUBCHEM_SHAPE_VOLUME>
194.2

> <PUBCHEM_COORDINATE_TYPE>
2
5
10

$$$$
