21768605
  -OEChem-02172602283D

 42 42  0     1  0  0  0  0  0999 V2000
    3.4488   -0.2558   -1.0961 O   0  0  0  0  0  0  0  0  0  0  0  0
    1.2654   -0.1345   -0.1453 C   0  0  1  0  0  0  0  0  0  0  0  0
    2.7014    0.4033   -0.0764 C   0  0  0  0  0  0  0  0  0  0  0  0
    1.2712   -1.6742    0.0470 C   0  0  0  0  0  0  0  0  0  0  0  0
    0.3884    0.6003    0.9047 C   0  0  0  0  0  0  0  0  0  0  0  0
    0.1169   -2.4117   -0.6681 C   0  0  0  0  0  0  0  0  0  0  0  0
    2.7185    1.9045   -0.3460 C   0  0  0  0  0  0  0  0  0  0  0  0
    3.3238    0.0793    1.2779 C   0  0  0  0  0  0  0  0  0  0  0  0
   -0.3964    1.7323    0.2876 C   0  0  0  0  0  0  0  0  0  0  0  0
   -1.2557   -1.9868   -0.2014 C   0  0  0  0  0  0  0  0  0  0  0  0
   -1.7355    1.8287    0.1430 C   0  0  0  0  0  0  0  0  0  0  0  0
   -2.7423    0.8021    0.6322 C   0  0  0  0  0  0  0  0  0  0  0  0
   -3.1197   -0.2668   -0.4102 C   0  0  0  0  0  0  0  0  0  0  0  0
   -1.9142   -1.0272   -0.8798 C   0  0  0  0  0  0  0  0  0  0  0  0
   -1.7328   -2.6194    1.0760 C   0  0  0  0  0  0  0  0  0  0  0  0
   -2.3378    3.0258   -0.5450 C   0  0  0  0  0  0  0  0  0  0  0  0
    0.8881    0.0564   -1.1602 H   0  0  0  0  0  0  0  0  0  0  0  0
    1.2496   -1.9206    1.1161 H   0  0  0  0  0  0  0  0  0  0  0  0
    2.1926   -2.1189   -0.3467 H   0  0  0  0  0  0  0  0  0  0  0  0
    0.9572    1.0336    1.7298 H   0  0  0  0  0  0  0  0  0  0  0  0
   -0.2821   -0.1037    1.3991 H   0  0  0  0  0  0  0  0  0  0  0  0
    0.2308   -3.4927   -0.5175 H   0  0  0  0  0  0  0  0  0  0  0  0
    0.2176   -2.2560   -1.7504 H   0  0  0  0  0  0  0  0  0  0  0  0
    3.7502    2.2421   -0.5073 H   0  0  0  0  0  0  0  0  0  0  0  0
    2.1847    2.1521   -1.2702 H   0  0  0  0  0  0  0  0  0  0  0  0
    2.3253    2.4989    0.4829 H   0  0  0  0  0  0  0  0  0  0  0  0
    4.3737    0.4012    1.2804 H   0  0  0  0  0  0  0  0  0  0  0  0
    2.8527    0.5716    2.1306 H   0  0  0  0  0  0  0  0  0  0  0  0
    3.3649   -0.9971    1.4735 H   0  0  0  0  0  0  0  0  0  0  0  0
    0.1904    2.5632   -0.0930 H   0  0  0  0  0  0  0  0  0  0  0  0
    4.3658    0.0651   -1.0537 H   0  0  0  0  0  0  0  0  0  0  0  0
   -2.3808    0.3203    1.5480 H   0  0  0  0  0  0  0  0  0  0  0  0
   -3.6575    1.3237    0.9420 H   0  0  0  0  0  0  0  0  0  0  0  0
   -3.5941    0.2084   -1.2777 H   0  0  0  0  0  0  0  0  0  0  0  0
   -3.8714   -0.9463    0.0064 H   0  0  0  0  0  0  0  0  0  0  0  0
   -1.4657   -0.6397   -1.7937 H   0  0  0  0  0  0  0  0  0  0  0  0
   -1.8058   -3.7047    0.9493 H   0  0  0  0  0  0  0  0  0  0  0  0
   -2.7173   -2.2640    1.3900 H   0  0  0  0  0  0  0  0  0  0  0  0
   -1.0342   -2.4162    1.8935 H   0  0  0  0  0  0  0  0  0  0  0  0
   -2.9219    2.7098   -1.4153 H   0  0  0  0  0  0  0  0  0  0  0  0
   -1.5791    3.7329   -0.8965 H   0  0  0  0  0  0  0  0  0  0  0  0
   -2.9992    3.5645    0.1414 H   0  0  0  0  0  0  0  0  0  0  0  0
  1  3  1  0  0  0  0
  1 31  1  0  0  0  0
  2  3  1  0  0  0  0
  2  4  1  0  0  0  0
  2  5  1  0  0  0  0
  2 17  1  0  0  0  0
  3  7  1  0  0  0  0
  3  8  1  0  0  0  0
  4  6  1  0  0  0  0
  4 18  1  0  0  0  0
  4 19  1  0  0  0  0
  5  9  1  0  0  0  0
  5 20  1  0  0  0  0
  5 21  1  0  0  0  0
  6 10  1  0  0  0  0
  6 22  1  0  0  0  0
  6 23  1  0  0  0  0
  7 24  1  0  0  0  0
  7 25  1  0  0  0  0
  7 26  1  0  0  0  0
  8 27  1  0  0  0  0
  8 28  1  0  0  0  0
  8 29  1  0  0  0  0
  9 11  2  0  0  0  0
  9 30  1  0  0  0  0
 10 14  2  0  0  0  0
 10 15  1  0  0  0  0
 11 12  1  0  0  0  0
 11 16  1  0  0  0  0
 12 13  1  0  0  0  0
 12 32  1  0  0  0  0
 12 33  1  0  0  0  0
 13 14  1  0  0  0  0
 13 34  1  0  0  0  0
 13 35  1  0  0  0  0
 14 36  1  0  0  0  0
 15 37  1  0  0  0  0
 15 38  1  0  0  0  0
 15 39  1  0  0  0  0
 16 40  1  0  0  0  0
 16 41  1  0  0  0  0
 16 42  1  0  0  0  0
M  END
> <PUBCHEM_COMPOUND_CID>
21768605

> <PUBCHEM_CONFORMER_RMSD>
0.6

> <PUBCHEM_CONFORMER_DIVERSEORDER>
1
15
27
21
28
2
18
7
31
26
24
16
17
30
19
20
10
22
25
3
11
12
23
29
5
14
4
9
13
8
6

> <PUBCHEM_MMFF94_PARTIAL_CHARGES>
15
1 -0.68
10 -0.28
11 -0.28
12 0.14
13 0.14
14 -0.29
15 0.14
16 0.14
3 0.28
30 0.15
31 0.4
36 0.15
5 0.14
6 0.14
9 -0.29

> <PUBCHEM_EFFECTIVE_ROTOR_COUNT>
2.2

> <PUBCHEM_PHARMACOPHORE_FEATURES>
3
1 1 acceptor
1 1 donor
3 3 7 8 hydrophobe

> <PUBCHEM_HEAVY_ATOM_COUNT>
16

> <PUBCHEM_ATOM_DEF_STEREO_COUNT>
0

> <PUBCHEM_ATOM_UDEF_STEREO_COUNT>
1

> <PUBCHEM_BOND_DEF_STEREO_COUNT>
2

> <PUBCHEM_BOND_UDEF_STEREO_COUNT>
0

> <PUBCHEM_ISOTOPIC_ATOM_COUNT>
0

> <PUBCHEM_COMPONENT_COUNT>
1

> <PUBCHEM_CACTVS_TAUTO_COUNT>
1

> <PUBCHEM_CONFORMER_ID>
014C299D00000001

> <PUBCHEM_MMFF94_ENERGY>
44.6505

> <PUBCHEM_FEATURE_SELFOVERLAP>
15.223

> <PUBCHEM_SHAPE_FINGERPRINT>
10967382 1 18412262843628062421
11132069 177 18273491290785059849
13027679 85 17690847082840136149
13140716 1 18194962065853371537
13380535 76 18340200800088652227
13538477 17 18186797023933723034
13764800 53 18334866059965411555
13897977 150 17979354153796935293
14178342 30 18053656984506133992
14251711 518 17692243458138591814
14251745 187 18201148974622119393
14614273 12 18410847733724855941
15775835 57 18200316515882350009
16945 1 18407760339227908474
18186145 218 18059014965019107816
19868273 325 18051128387029730679
20645476 183 18261680272323066461
21524375 3 18341046307593285307
22721475 48 18199186368010278065
22802520 49 18200894944782108630
2334 1 17907293613115679441
23402539 116 18057305379004147559
23419403 2 13968277774732980767
23559900 14 18060140887355276734
238 59 16817677147830196189
2748010 2 17980470488637101185
2897 32 18268148652121762855
353137 74 18410287034154839057
58051976 378 18268422443534376109
7364860 26 17623281676406002594
81228 2 18340483477719418641
8809292 202 18411704296174485570

> <PUBCHEM_SHAPE_MULTIPOLES>
323.4
5.17
3.21
1.04
2.53
0.09
0.12
1.45
-0.13
-2.07
-0.16
0.21
-0.2
0.19

> <PUBCHEM_SHAPE_SELFOVERLAP>
634.856

> <PUBCHEM_SHAPE_VOLUME>
193.2

> <PUBCHEM_COORDINATE_TYPE>
2
5
10

$$$$
