12310403
  -OEChem-02172602293D

 48 49  0     1  0  0  0  0  0999 V2000
    0.3263   -0.1070    0.6080 O   0  0  0  0  0  0  0  0  0  0  0  0
    3.7645    0.8173    0.9191 O   0  0  0  0  0  0  0  0  0  0  0  0
    1.8326   -1.4734   -1.1816 O   0  0  0  0  0  0  0  0  0  0  0  0
    1.6724    0.3420    2.4176 O   0  0  0  0  0  0  0  0  0  0  0  0
   -3.8001   -0.3971   -0.8535 N   0  0  2  0  0  0  0  0  0  0  0  0
   -2.5406    0.2521   -0.3781 C   0  0  1  0  0  0  0  0  0  0  0  0
   -2.9268    1.6686    0.0463 C   0  0  0  0  0  0  0  0  0  0  0  0
   -4.9077    0.4803   -0.4474 C   0  0  0  0  0  0  0  0  0  0  0  0
   -4.3061    1.8670   -0.5547 C   0  0  0  0  0  0  0  0  0  0  0  0
   -2.0063   -0.6295    0.7074 C   0  0  0  0  0  0  0  0  0  0  0  0
   -3.8601   -1.7182   -0.1906 C   0  0  0  0  0  0  0  0  0  0  0  0
   -2.7509   -1.7343    0.8078 C   0  0  0  0  0  0  0  0  0  0  0  0
   -0.7884   -0.2910    1.4865 C   0  0  0  0  0  0  0  0  0  0  0  0
    2.6225    0.3730    0.1684 C   0  0  1  0  0  0  0  0  0  0  0  0
    2.2991    1.5080   -0.8493 C   0  0  0  0  0  0  0  0  0  0  0  0
    2.9822   -0.9902   -0.4759 C   0  0  1  0  0  0  0  0  0  0  0  0
    1.5087    0.2094    1.2102 C   0  0  0  0  0  0  0  0  0  0  0  0
    2.0099    2.8531   -0.1623 C   0  0  0  0  0  0  0  0  0  0  0  0
    3.3548    1.7155   -1.9391 C   0  0  0  0  0  0  0  0  0  0  0  0
    3.3901   -2.0663    0.5278 C   0  0  0  0  0  0  0  0  0  0  0  0
    2.1240   -2.6791   -1.8665 C   0  0  0  0  0  0  0  0  0  0  0  0
   -1.8333    0.2860   -1.2158 H   0  0  0  0  0  0  0  0  0  0  0  0
   -2.9841    1.7666    1.1372 H   0  0  0  0  0  0  0  0  0  0  0  0
   -2.2184    2.4168   -0.3238 H   0  0  0  0  0  0  0  0  0  0  0  0
   -5.7749    0.3576   -1.1031 H   0  0  0  0  0  0  0  0  0  0  0  0
   -5.2234    0.3023    0.5890 H   0  0  0  0  0  0  0  0  0  0  0  0
   -4.8880    2.6206   -0.0163 H   0  0  0  0  0  0  0  0  0  0  0  0
   -4.2254    2.1763   -1.6039 H   0  0  0  0  0  0  0  0  0  0  0  0
   -3.6914   -2.5028   -0.9364 H   0  0  0  0  0  0  0  0  0  0  0  0
   -4.8261   -1.9137    0.2879 H   0  0  0  0  0  0  0  0  0  0  0  0
   -2.5678   -2.5478    1.4946 H   0  0  0  0  0  0  0  0  0  0  0  0
   -0.5529   -1.0946    2.1949 H   0  0  0  0  0  0  0  0  0  0  0  0
   -0.9584    0.6312    2.0540 H   0  0  0  0  0  0  0  0  0  0  0  0
    1.3727    1.2286   -1.3705 H   0  0  0  0  0  0  0  0  0  0  0  0
    3.8202   -0.8506   -1.1695 H   0  0  0  0  0  0  0  0  0  0  0  0
    1.2351    2.7627    0.6048 H   0  0  0  0  0  0  0  0  0  0  0  0
    2.9075    3.2779    0.2980 H   0  0  0  0  0  0  0  0  0  0  0  0
    1.6480    3.5818   -0.8969 H   0  0  0  0  0  0  0  0  0  0  0  0
    4.3376    1.9288   -1.5063 H   0  0  0  0  0  0  0  0  0  0  0  0
    3.0845    2.5553   -2.5887 H   0  0  0  0  0  0  0  0  0  0  0  0
    3.4446    0.8336   -2.5803 H   0  0  0  0  0  0  0  0  0  0  0  0
    2.5290   -2.4432    1.0906 H   0  0  0  0  0  0  0  0  0  0  0  0
    3.8549   -2.9262    0.0337 H   0  0  0  0  0  0  0  0  0  0  0  0
    4.1300   -1.6876    1.2402 H   0  0  0  0  0  0  0  0  0  0  0  0
    3.5130    1.5914    1.4493 H   0  0  0  0  0  0  0  0  0  0  0  0
    2.0955   -3.5372   -1.1890 H   0  0  0  0  0  0  0  0  0  0  0  0
    1.3369   -2.8352   -2.6107 H   0  0  0  0  0  0  0  0  0  0  0  0
    3.0800   -2.6302   -2.3980 H   0  0  0  0  0  0  0  0  0  0  0  0
  1 13  1  0  0  0  0
  1 17  1  0  0  0  0
  2 14  1  0  0  0  0
  2 45  1  0  0  0  0
  3 16  1  0  0  0  0
  3 21  1  0  0  0  0
  4 17  2  0  0  0  0
  5  6  1  0  0  0  0
  5  8  1  0  0  0  0
  5 11  1  0  0  0  0
  6  7  1  0  0  0  0
  6 10  1  0  0  0  0
  6 22  1  0  0  0  0
  7  9  1  0  0  0  0
  7 23  1  0  0  0  0
  7 24  1  0  0  0  0
  8  9  1  0  0  0  0
  8 25  1  0  0  0  0
  8 26  1  0  0  0  0
  9 27  1  0  0  0  0
  9 28  1  0  0  0  0
 10 12  2  0  0  0  0
 10 13  1  0  0  0  0
 11 12  1  0  0  0  0
 11 29  1  0  0  0  0
 11 30  1  0  0  0  0
 12 31  1  0  0  0  0
 13 32  1  0  0  0  0
 13 33  1  0  0  0  0
 14 15  1  0  0  0  0
 14 16  1  0  0  0  0
 14 17  1  0  0  0  0
 15 18  1  0  0  0  0
 15 19  1  0  0  0  0
 15 34  1  0  0  0  0
 16 20  1  0  0  0  0
 16 35  1  0  0  0  0
 18 36  1  0  0  0  0
 18 37  1  0  0  0  0
 18 38  1  0  0  0  0
 19 39  1  0  0  0  0
 19 40  1  0  0  0  0
 19 41  1  0  0  0  0
 20 42  1  0  0  0  0
 20 43  1  0  0  0  0
 20 44  1  0  0  0  0
 21 46  1  0  0  0  0
 21 47  1  0  0  0  0
 21 48  1  0  0  0  0
M  END
> <PUBCHEM_COMPOUND_CID>
12310403

> <PUBCHEM_CONFORMER_RMSD>
0.8

> <PUBCHEM_CONFORMER_DIVERSEORDER>
1
311
267
246
176
173
60
141
244
73
72
159
183
214
269
300
66
276
146
195
217
196
248
92
87
67
188
253
7
296
76
191
295
263
262
227
118
215
239
207
251
221
81
94
54
130
79
259
216
56
258
298
91
99
222
77
257
271
117
95
37
82
100
291
179
160
303
10
145
210
238
75
14
163
68
265
290
206
285
301
242
297
270
112
273
62
255
219
126
143
260
299
109
93
165
310
12
194
50
198
58
123
234
49
202
80
277
113
78
154
19
48
307
292
264
108
136
284
132
237
186
121
193
142
53
8
64
147
180
189
162
213
266
4
83
288
43
243
36
17
74
138
278
150
105
52
70
199
71
302
152
149
209
256
233
25
107
144
225
30
289
249
204
187
236
139
22
115
228
11
16
42
201
293
235
181
230
29
135
200
167
294
182
46
131
41
309
223
40
286
44
119
9
208
169
170
3
38
197
261
124
137
153
23
63
161
212
116
282
69
34
104
156
127
32
203
211
88
279
26
27
18
33
166
65
275
304
232
272
114
21
101
274
106
5
158
111
89
110
241
247
24
308
6
281
2
61
280
96
184
103
220
305
51
15
254
148
252
175
85
45
178
172
134
57
240
157
13
31
205
28
35
151
218
133
120
128
59
306
171
84
268
283
140
177
287
122
174
226
250
245
168
90
86
231
129
229
47
155
98
164
55
102
97
20
190
125
185
39
224
192

> <PUBCHEM_MMFF94_PARTIAL_CHARGES>
17
1 -0.43
10 -0.28
11 0.41
12 -0.29
13 0.42
14 0.34
16 0.28
17 0.66
2 -0.68
21 0.28
3 -0.56
31 0.15
4 -0.57
45 0.4
5 -0.81
6 0.41
8 0.27

> <PUBCHEM_EFFECTIVE_ROTOR_COUNT>
7.8

> <PUBCHEM_PHARMACOPHORE_FEATURES>
8
1 2 acceptor
1 2 donor
1 3 acceptor
1 4 acceptor
1 5 cation
3 15 18 19 hydrophobe
5 5 6 10 11 12 rings
5 5 6 7 8 9 rings

> <PUBCHEM_HEAVY_ATOM_COUNT>
21

> <PUBCHEM_ATOM_DEF_STEREO_COUNT>
3

> <PUBCHEM_ATOM_UDEF_STEREO_COUNT>
0

> <PUBCHEM_BOND_DEF_STEREO_COUNT>
0

> <PUBCHEM_BOND_UDEF_STEREO_COUNT>
0

> <PUBCHEM_ISOTOPIC_ATOM_COUNT>
0

> <PUBCHEM_COMPONENT_COUNT>
1

> <PUBCHEM_CACTVS_TAUTO_COUNT>
1

> <PUBCHEM_CONFORMER_ID>
00BBD78300000001

> <PUBCHEM_MMFF94_ENERGY>
44.2157

> <PUBCHEM_FEATURE_SELFOVERLAP>
40.97

> <PUBCHEM_SHAPE_FINGERPRINT>
10498660 4 17095238163793166589
11370993 70 18341890813864097599
116883 192 18124037827965087252
12173636 292 18334004017616988455
12553582 1 16773528723553673403
12596599 1 18186525393074880357
12633257 1 17821718438458318340
12670545 2 16271919377326813853
12707595 3 16630530651986271963
13004483 165 17682384859518259106
13224815 77 17775290486291499539
13464514 151 17676784153365104940
14863182 85 17275388668912534358
15163728 17 16301520562793393724
17492 89 18334293210191903715
17980427 23 18119499228623095032
18186145 218 18336837402762214139
20626108 58 18340474578753409850
20645477 70 17632574924809623943
21860390 5 17749675189975020244
21864079 5 17676201339066789221
22393880 68 18341061821051764068
22646028 28 12823299017940277361
23114952 82 18339655459427194431
23419403 2 16906048243360669954
23557571 272 17388554970855638179
23559900 14 18411976932008417155
238 59 18270129040162362746
2838139 119 17824556398793520460
3472631 163 17894907439009916909
4175511 335 17918278649384738134
4280585 95 18052551967479572334
474 4 16805605944417530085
5161694 15 18338802195739249183
5262128 65 18336276685938526868
5281201 14 18408890624602373887
58051976 378 18337387274366249555
5895379 119 18336264544314433688
633830 44 17894346662220217531
7399639 24 17978793742063327521
8988823 20 8430306901960087657
9709674 26 18410294731084698503
9971528 1 18261665987868533960
9981440 41 17608936726483352344

> <PUBCHEM_SHAPE_MULTIPOLES>
403.71
9
2.7
1.64
6.91
0.19
-0.12
0.92
2.13
-1.32
0.99
-1.4
-0.27
0.39

> <PUBCHEM_SHAPE_SELFOVERLAP>
823.006

> <PUBCHEM_SHAPE_VOLUME>
237.5

> <PUBCHEM_COORDINATE_TYPE>
2
5
10

$$$$
