10245246
  -OEChem-02172602283D

 51 54  0     1  0  0  0  0  0999 V2000
    5.4115    1.3020    0.0447 O   0  0  0  0  0  0  0  0  0  0  0  0
   -3.5324    1.6996    0.0810 O   0  0  0  0  0  0  0  0  0  0  0  0
   -5.7949    1.2873    0.1173 O   0  0  0  0  0  0  0  0  0  0  0  0
    1.1433    0.4529   -0.0304 C   0  0  2  0  0  0  0  0  0  0  0  0
    2.1870   -0.7132   -0.2827 C   0  0  1  0  0  0  0  0  0  0  0  0
    3.6825   -0.4353    0.1302 C   0  0  0  0  0  0  0  0  0  0  0  0
   -0.1824    0.0694   -0.8141 C   0  0  1  0  0  0  0  0  0  0  0  0
    1.7343    1.7683   -0.6024 C   0  0  0  0  0  0  0  0  0  0  0  0
    1.6305   -2.0712    0.2054 C   0  0  0  0  0  0  0  0  0  0  0  0
    4.1159    0.9468   -0.4374 C   0  0  1  0  0  0  0  0  0  0  0  0
    3.1432    2.0734   -0.1068 C   0  0  0  0  0  0  0  0  0  0  0  0
   -0.6843   -1.3178   -0.3900 C   0  0  0  0  0  0  0  0  0  0  0  0
    0.3239   -2.4267   -0.5068 C   0  0  0  0  0  0  0  0  0  0  0  0
   -1.3167    1.1376   -0.8209 C   0  0  0  0  0  0  0  0  0  0  0  0
    0.8125    0.6712    1.4631 C   0  0  0  0  0  0  0  0  0  0  0  0
    3.9546   -0.5280    1.6466 C   0  0  0  0  0  0  0  0  0  0  0  0
    4.6030   -1.5043   -0.5270 C   0  0  0  0  0  0  0  0  0  0  0  0
   -2.3692    0.8914    0.2530 C   0  0  2  0  0  0  0  0  0  0  0  0
   -1.9387   -1.5569    0.0377 C   0  0  0  0  0  0  0  0  0  0  0  0
   -2.8862   -0.4886    0.1635 C   0  0  0  0  0  0  0  0  0  0  0  0
   -4.2170   -0.5164    0.1631 C   0  0  0  0  0  0  0  0  0  0  0  0
   -4.6398    0.8964    0.1323 C   0  0  0  0  0  0  0  0  0  0  0  0
   -5.1808   -1.6378    0.0806 C   0  0  0  0  0  0  0  0  0  0  0  0
    2.2364   -0.8053   -1.3813 H   0  0  0  0  0  0  0  0  0  0  0  0
    0.1099   -0.0285   -1.8716 H   0  0  0  0  0  0  0  0  0  0  0  0
    1.0999    2.6246   -0.3483 H   0  0  0  0  0  0  0  0  0  0  0  0
    1.7552    1.7140   -1.6989 H   0  0  0  0  0  0  0  0  0  0  0  0
    1.4686   -2.0590    1.2887 H   0  0  0  0  0  0  0  0  0  0  0  0
    2.3381   -2.8813    0.0071 H   0  0  0  0  0  0  0  0  0  0  0  0
    4.1893    0.8859   -1.5318 H   0  0  0  0  0  0  0  0  0  0  0  0
    3.4982    3.0004   -0.5754 H   0  0  0  0  0  0  0  0  0  0  0  0
    3.1466    2.2850    0.9683 H   0  0  0  0  0  0  0  0  0  0  0  0
   -0.0628   -3.3659   -0.0935 H   0  0  0  0  0  0  0  0  0  0  0  0
    0.5241   -2.6107   -1.5698 H   0  0  0  0  0  0  0  0  0  0  0  0
   -1.8098    1.1102   -1.8044 H   0  0  0  0  0  0  0  0  0  0  0  0
   -0.9372    2.1597   -0.7405 H   0  0  0  0  0  0  0  0  0  0  0  0
    0.1459    1.5301    1.5916 H   0  0  0  0  0  0  0  0  0  0  0  0
    0.3241   -0.1946    1.9187 H   0  0  0  0  0  0  0  0  0  0  0  0
    1.6882    0.9002    2.0657 H   0  0  0  0  0  0  0  0  0  0  0  0
    3.5960    0.3406    2.1984 H   0  0  0  0  0  0  0  0  0  0  0  0
    3.5093   -1.4244    2.0879 H   0  0  0  0  0  0  0  0  0  0  0  0
    5.0314   -0.5833    1.8501 H   0  0  0  0  0  0  0  0  0  0  0  0
    4.4200   -2.5048   -0.1229 H   0  0  0  0  0  0  0  0  0  0  0  0
    4.4508   -1.5467   -1.6113 H   0  0  0  0  0  0  0  0  0  0  0  0
    5.6642   -1.2966   -0.3527 H   0  0  0  0  0  0  0  0  0  0  0  0
   -1.9714    1.0952    1.2519 H   0  0  0  0  0  0  0  0  0  0  0  0
   -2.2658   -2.5662    0.2645 H   0  0  0  0  0  0  0  0  0  0  0  0
    6.0667    0.7662   -0.4320 H   0  0  0  0  0  0  0  0  0  0  0  0
   -4.6791   -2.6065   -0.0012 H   0  0  0  0  0  0  0  0  0  0  0  0
   -5.8283   -1.5236   -0.7946 H   0  0  0  0  0  0  0  0  0  0  0  0
   -5.8119   -1.6620    0.9746 H   0  0  0  0  0  0  0  0  0  0  0  0
  1 10  1  0  0  0  0
  1 48  1  0  0  0  0
  2 18  1  0  0  0  0
  2 22  1  0  0  0  0
  3 22  2  0  0  0  0
  4  5  1  0  0  0  0
  4  7  1  0  0  0  0
  4  8  1  0  0  0  0
  4 15  1  0  0  0  0
  5  6  1  0  0  0  0
  5  9  1  0  0  0  0
  5 24  1  0  0  0  0
  6 10  1  0  0  0  0
  6 16  1  0  0  0  0
  6 17  1  0  0  0  0
  7 12  1  0  0  0  0
  7 14  1  0  0  0  0
  7 25  1  0  0  0  0
  8 11  1  0  0  0  0
  8 26  1  0  0  0  0
  8 27  1  0  0  0  0
  9 13  1  0  0  0  0
  9 28  1  0  0  0  0
  9 29  1  0  0  0  0
 10 11  1  0  0  0  0
 10 30  1  0  0  0  0
 11 31  1  0  0  0  0
 11 32  1  0  0  0  0
 12 13  1  0  0  0  0
 12 19  2  0  0  0  0
 13 33  1  0  0  0  0
 13 34  1  0  0  0  0
 14 18  1  0  0  0  0
 14 35  1  0  0  0  0
 14 36  1  0  0  0  0
 15 37  1  0  0  0  0
 15 38  1  0  0  0  0
 15 39  1  0  0  0  0
 16 40  1  0  0  0  0
 16 41  1  0  0  0  0
 16 42  1  0  0  0  0
 17 43  1  0  0  0  0
 17 44  1  0  0  0  0
 17 45  1  0  0  0  0
 18 20  1  0  0  0  0
 18 46  1  0  0  0  0
 19 20  1  0  0  0  0
 19 47  1  0  0  0  0
 20 21  2  0  0  0  0
 21 22  1  0  0  0  0
 21 23  1  0  0  0  0
 23 49  1  0  0  0  0
 23 50  1  0  0  0  0
 23 51  1  0  0  0  0
M  END
> <PUBCHEM_COMPOUND_CID>
10245246

> <PUBCHEM_CONFORMER_RMSD>
0.6

> <PUBCHEM_CONFORMER_DIVERSEORDER>
1

> <PUBCHEM_MMFF94_PARTIAL_CHARGES>
15
1 -0.68
10 0.28
12 -0.28
13 0.14
18 0.42
19 -0.15
2 -0.43
20 -0.14
21 -0.12
22 0.71
23 0.14
3 -0.57
47 0.15
48 0.4
7 0.14

> <PUBCHEM_EFFECTIVE_ROTOR_COUNT>
1.6

> <PUBCHEM_PHARMACOPHORE_FEATURES>
8
1 1 acceptor
1 1 donor
1 3 acceptor
3 6 16 17 hydrophobe
5 2 18 20 21 22 rings
6 4 5 6 8 10 11 rings
6 4 5 7 9 12 13 rings
6 7 12 14 18 19 20 rings

> <PUBCHEM_HEAVY_ATOM_COUNT>
23

> <PUBCHEM_ATOM_DEF_STEREO_COUNT>
5

> <PUBCHEM_ATOM_UDEF_STEREO_COUNT>
0

> <PUBCHEM_BOND_DEF_STEREO_COUNT>
0

> <PUBCHEM_BOND_UDEF_STEREO_COUNT>
0

> <PUBCHEM_ISOTOPIC_ATOM_COUNT>
0

> <PUBCHEM_COMPONENT_COUNT>
1

> <PUBCHEM_CACTVS_TAUTO_COUNT>
1

> <PUBCHEM_CONFORMER_ID>
009C547E00000001

> <PUBCHEM_MMFF94_ENERGY>
71.4784

> <PUBCHEM_FEATURE_SELFOVERLAP>
40.746

> <PUBCHEM_SHAPE_FINGERPRINT>
10366900 7 17530689788049774474
10411042 1 17690564083177429086
10493431 412 18339077198384653060
10948715 1 18338519745551650618
11370993 70 18412263947461044283
11578080 2 13109861331657108762
12011746 2 18337392638912121879
12107183 9 17760365492202243361
12236239 1 18260265269936375896
12251169 10 18408040693402855655
12403259 415 17988639744099086817
12403814 3 17967524683838576645
12592029 89 18334858277563643426
12633257 1 18113892732627419875
12670546 56 17821720637307221227
12788726 201 17775297036454704456
13140716 1 18336539512515222690
13224815 77 18334571352178299975
13583140 156 16486963038018392638
13675066 3 17988638592847449350
14341114 176 18409175389513490321
14787075 74 18272088357124680331
14790565 3 18337115660861420932
15196674 1 18410857663567879423
15536298 74 18413393128765203158
15788980 27 18334018280602095635
1601671 61 18410013217468697196
16945 1 18263350422402249222
17349148 13 18261671562715153983
1813 80 16877664560688907724
18681886 176 18341049709550203808
19591789 44 18410293605565864254
19784866 9 18413107229903495531
200 152 18201997738118008207
20028762 73 18271522099936581295
20691752 17 17530957020841214726
20715895 44 18049718521730303529
20739085 24 18113901554917468276
21033648 29 17774988081759769186
21267235 1 18410302414417194190
21421861 104 17751352885351717586
21682296 61 17986965046162065614
21709351 56 18409162208417023989
23227448 37 18341331188283915767
23402539 116 18343016714092550709
23558518 356 17684368739023274388
23559900 14 18270684156048223438
3004659 81 18409172082947913054
335352 9 18410857625335375254
350125 39 18410856576967670229
351380 180 18409730668618287153
4214541 1 18409731763982764141
465052 167 18041003929221014538
474 4 17314797514824966100
495365 180 17060611223020438562
5104073 3 18408324397557225505
59755656 215 18265896856872142093
633830 44 18410853269758528094
8272917 22 18341618053476133775
9709674 26 18409457981271875267
9999458 23 18260269633697073446

> <PUBCHEM_SHAPE_MULTIPOLES>
455.72
10.97
2.28
0.95
5.37
0.36
0.26
-1.67
0.93
-0.31
-0.25
-0.63
-0.01
-0.14

> <PUBCHEM_SHAPE_SELFOVERLAP>
982.495

> <PUBCHEM_SHAPE_VOLUME>
250

> <PUBCHEM_COORDINATE_TYPE>
2
5
10

$$$$
