12921576
  -OEChem-02172602513D

 31 31  0     1  0  0  0  0  0999 V2000
    0.3035    0.6951    0.8831 P   0  0  2  0  0  0  0  0  0  0  0  0
    0.8380   -1.2757   -0.6166 O   0  0  0  0  0  0  0  0  0  0  0  0
   -0.3321    1.8306   -0.0833 O   0  0  0  0  0  0  0  0  0  0  0  0
   -0.5026   -1.7104    1.2674 O   0  0  0  0  0  0  0  0  0  0  0  0
   -0.0538    0.8751    2.3308 O   0  0  0  0  0  0  0  0  0  0  0  0
   -2.5647   -0.3871    0.1010 O   0  0  0  0  0  0  0  0  0  0  0  0
    3.0683   -0.9928   -0.8752 O   0  0  0  0  0  0  0  0  0  0  0  0
   -1.5501   -1.0866   -1.8529 O   0  0  0  0  0  0  0  0  0  0  0  0
    1.8549    0.4944    0.4661 N   0  0  0  0  0  0  0  0  0  0  0  0
   -0.2792   -0.8468    0.1693 C   0  0  1  0  0  0  0  0  0  0  0  0
   -1.5138   -0.7976   -0.6645 C   0  0  0  0  0  0  0  0  0  0  0  0
    1.9386   -0.5382   -0.3021 C   0  0  0  0  0  0  0  0  0  0  0  0
   -0.0440    3.1812    0.2304 C   0  0  0  0  0  0  0  0  0  0  0  0
   -0.8183   -3.0324    0.8441 C   0  0  0  0  0  0  0  0  0  0  0  0
   -0.7237    4.0783   -0.7820 C   0  0  0  0  0  0  0  0  0  0  0  0
   -3.8210   -0.2942   -0.5782 C   0  0  0  0  0  0  0  0  0  0  0  0
    4.2000   -0.1927   -0.5372 C   0  0  0  0  0  0  0  0  0  0  0  0
   -0.4107    3.4064    1.2367 H   0  0  0  0  0  0  0  0  0  0  0  0
    1.0394    3.3354    0.2059 H   0  0  0  0  0  0  0  0  0  0  0  0
   -0.0509   -3.4408    0.1796 H   0  0  0  0  0  0  0  0  0  0  0  0
   -1.8030   -3.0839    0.3709 H   0  0  0  0  0  0  0  0  0  0  0  0
   -0.8538   -3.6639    1.7371 H   0  0  0  0  0  0  0  0  0  0  0  0
   -0.5223    5.1317   -0.5683 H   0  0  0  0  0  0  0  0  0  0  0  0
   -0.3750    3.8499   -1.7946 H   0  0  0  0  0  0  0  0  0  0  0  0
   -1.8067    3.9164   -0.7747 H   0  0  0  0  0  0  0  0  0  0  0  0
   -3.7599    0.4397   -1.3873 H   0  0  0  0  0  0  0  0  0  0  0  0
   -4.5729    0.0391    0.1420 H   0  0  0  0  0  0  0  0  0  0  0  0
   -4.1153   -1.2743   -0.9655 H   0  0  0  0  0  0  0  0  0  0  0  0
    5.0728   -0.6222   -1.0381 H   0  0  0  0  0  0  0  0  0  0  0  0
    4.3885   -0.2139    0.5414 H   0  0  0  0  0  0  0  0  0  0  0  0
    4.0779    0.8340   -0.8985 H   0  0  0  0  0  0  0  0  0  0  0  0
  1  3  1  0  0  0  0
  1  5  2  0  0  0  0
  1  9  1  0  0  0  0
  1 10  1  0  0  0  0
  2 10  1  0  0  0  0
  2 12  1  0  0  0  0
  3 13  1  0  0  0  0
  4 10  1  0  0  0  0
  4 14  1  0  0  0  0
  6 11  1  0  0  0  0
  6 16  1  0  0  0  0
  7 12  1  0  0  0  0
  7 17  1  0  0  0  0
  8 11  2  0  0  0  0
  9 12  2  0  0  0  0
 10 11  1  0  0  0  0
 13 15  1  0  0  0  0
 13 18  1  0  0  0  0
 13 19  1  0  0  0  0
 14 20  1  0  0  0  0
 14 21  1  0  0  0  0
 14 22  1  0  0  0  0
 15 23  1  0  0  0  0
 15 24  1  0  0  0  0
 15 25  1  0  0  0  0
 16 26  1  0  0  0  0
 16 27  1  0  0  0  0
 16 28  1  0  0  0  0
 17 29  1  0  0  0  0
 17 30  1  0  0  0  0
 17 31  1  0  0  0  0
M  END
> <PUBCHEM_COMPOUND_CID>
12921576

> <PUBCHEM_CONFORMER_RMSD>
0.8

> <PUBCHEM_CONFORMER_DIVERSEORDER>
1
4
29
21
25
17
13
28
6
32
5
22
16
11
12
10
27
31
18
20
15
9
19
14
8
23
2
24
26
30
7
3

> <PUBCHEM_MMFF94_PARTIAL_CHARGES>
16
1 1.29
10 0.62
11 0.66
12 0.75
13 0.28
14 0.28
16 0.28
17 0.28
2 -0.43
3 -0.55
4 -0.56
5 -0.7
6 -0.43
7 -0.43
8 -0.57
9 -0.77

> <PUBCHEM_EFFECTIVE_ROTOR_COUNT>
6.4

> <PUBCHEM_PHARMACOPHORE_FEATURES>
3
1 4 acceptor
1 8 acceptor
5 1 2 9 10 12 rings

> <PUBCHEM_HEAVY_ATOM_COUNT>
17

> <PUBCHEM_ATOM_DEF_STEREO_COUNT>
0

> <PUBCHEM_ATOM_UDEF_STEREO_COUNT>
2

> <PUBCHEM_BOND_DEF_STEREO_COUNT>
0

> <PUBCHEM_BOND_UDEF_STEREO_COUNT>
0

> <PUBCHEM_ISOTOPIC_ATOM_COUNT>
0

> <PUBCHEM_COMPONENT_COUNT>
1

> <PUBCHEM_CACTVS_TAUTO_COUNT>
1

> <PUBCHEM_CONFORMER_ID>
00C52AE800000001

> <PUBCHEM_MMFF94_ENERGY>
34.3102

> <PUBCHEM_FEATURE_SELFOVERLAP>
15.223

> <PUBCHEM_SHAPE_FINGERPRINT>
10353120 184 18409720747085591005
13380536 167 17544745738488182331
14120999 15 18411427223360061201
14614273 12 18128548067664352486
14648413 74 17904197379824145161
15210252 30 17896585207665413541
15490181 7 17618525184999206360
16945 1 18271512105399061118
187816 3 18408325475473034630
18785283 64 17758128376834445257
20511035 2 17769930504407862411
21524375 3 17616826431224328996
23402539 116 18412538804062223470
23419403 2 17344599626981951904
2748010 2 18126007306767240426
3250762 1 17758682539200376307
353137 74 18264767658019011117
81228 2 18270134430557186144

> <PUBCHEM_SHAPE_MULTIPOLES>
307.64
4.33
3.67
1.37
2.1
4.29
0.38
-1.63
-1.89
-1.26
-0.01
-0.21
-0.13
0.36

> <PUBCHEM_SHAPE_SELFOVERLAP>
604.828

> <PUBCHEM_SHAPE_VOLUME>
187.2

> <PUBCHEM_COORDINATE_TYPE>
2
5
10

$$$$
