101185461
  -OEChem-02172602513D

 56 59  0     1  0  0  0  0  0999 V2000
   -7.6913    0.5243   -0.9410 Br  0  0  0  0  0  0  0  0  0  0  0  0
    0.6447    6.1057    0.4663 Cl  0  0  0  0  0  0  0  0  0  0  0  0
    6.7686   -0.6409   -0.3577 O   0  0  0  0  0  0  0  0  0  0  0  0
    1.2410   -0.4533   -0.3733 N   0  0  0  0  0  0  0  0  0  0  0  0
   -1.6736    0.0215   -0.5034 N   0  0  0  0  0  0  0  0  0  0  0  0
    0.4565    0.0857    0.7261 C   0  0  2  0  0  0  0  0  0  0  0  0
   -1.0000   -0.4791    0.6950 C   0  0  2  0  0  0  0  0  0  0  0  0
    0.5041    1.6018    0.6608 C   0  0  0  0  0  0  0  0  0  0  0  0
   -1.0826   -1.9678    0.7329 C   0  0  0  0  0  0  0  0  0  0  0  0
    2.6202   -0.5001   -0.3697 C   0  0  0  0  0  0  0  0  0  0  0  0
   -3.0404    0.1361   -0.6026 C   0  0  0  0  0  0  0  0  0  0  0  0
    0.5723    2.2444   -0.5754 C   0  0  0  0  0  0  0  0  0  0  0  0
    0.4795    2.3520    1.8364 C   0  0  0  0  0  0  0  0  0  0  0  0
   -1.1599   -2.6307    1.9575 C   0  0  0  0  0  0  0  0  0  0  0  0
   -1.0828   -2.6970   -0.4562 C   0  0  0  0  0  0  0  0  0  0  0  0
    0.6161    3.6373   -0.6358 C   0  0  0  0  0  0  0  0  0  0  0  0
    0.5231    3.7448    1.7760 C   0  0  0  0  0  0  0  0  0  0  0  0
   -1.2372   -4.0229    1.9934 C   0  0  0  0  0  0  0  0  0  0  0  0
   -1.1603   -4.0893   -0.4205 C   0  0  0  0  0  0  0  0  0  0  0  0
    3.3027   -1.0329   -1.4634 C   0  0  0  0  0  0  0  0  0  0  0  0
    3.3317   -0.0147    0.7274 C   0  0  0  0  0  0  0  0  0  0  0  0
   -3.6162    0.6219   -1.7767 C   0  0  0  0  0  0  0  0  0  0  0  0
   -3.8510   -0.2337    0.4705 C   0  0  0  0  0  0  0  0  0  0  0  0
    0.5915    4.3874    0.5399 C   0  0  0  0  0  0  0  0  0  0  0  0
   -1.2375   -4.7523    0.8043 C   0  0  0  0  0  0  0  0  0  0  0  0
    4.6967   -1.0803   -1.4599 C   0  0  0  0  0  0  0  0  0  0  0  0
    4.7256   -0.0621    0.7309 C   0  0  0  0  0  0  0  0  0  0  0  0
   -5.0026    0.7378   -1.8774 C   0  0  0  0  0  0  0  0  0  0  0  0
   -5.2373   -0.1179    0.3699 C   0  0  0  0  0  0  0  0  0  0  0  0
    5.4082   -0.5949   -0.3627 C   0  0  0  0  0  0  0  0  0  0  0  0
   -5.8131    0.3679   -0.8041 C   0  0  0  0  0  0  0  0  0  0  0  0
    7.4032   -1.1987   -1.5076 C   0  0  0  0  0  0  0  0  0  0  0  0
    0.8794   -0.2579    1.6798 H   0  0  0  0  0  0  0  0  0  0  0  0
   -1.4837   -0.0544    1.5849 H   0  0  0  0  0  0  0  0  0  0  0  0
    0.7648   -0.7275   -1.2251 H   0  0  0  0  0  0  0  0  0  0  0  0
   -1.1249    0.1837   -1.3400 H   0  0  0  0  0  0  0  0  0  0  0  0
    0.5839    1.6977   -1.5138 H   0  0  0  0  0  0  0  0  0  0  0  0
    0.4248    1.8624    2.8050 H   0  0  0  0  0  0  0  0  0  0  0  0
   -1.1588   -2.0744    2.8911 H   0  0  0  0  0  0  0  0  0  0  0  0
   -1.0111   -2.2208   -1.4297 H   0  0  0  0  0  0  0  0  0  0  0  0
    0.6669    4.1249   -1.6060 H   0  0  0  0  0  0  0  0  0  0  0  0
    0.5028    4.3164    2.7003 H   0  0  0  0  0  0  0  0  0  0  0  0
   -1.2968   -4.5392    2.9470 H   0  0  0  0  0  0  0  0  0  0  0  0
   -1.1574   -4.6577   -1.3460 H   0  0  0  0  0  0  0  0  0  0  0  0
    2.7594   -1.4146   -2.3244 H   0  0  0  0  0  0  0  0  0  0  0  0
    2.8629    0.4094    1.6080 H   0  0  0  0  0  0  0  0  0  0  0  0
   -2.9960    0.9141   -2.6204 H   0  0  0  0  0  0  0  0  0  0  0  0
   -3.4697   -0.6202    1.4087 H   0  0  0  0  0  0  0  0  0  0  0  0
   -1.2970   -5.8363    0.8322 H   0  0  0  0  0  0  0  0  0  0  0  0
    5.1633   -1.5068   -2.3413 H   0  0  0  0  0  0  0  0  0  0  0  0
    5.2754    0.3170    1.5882 H   0  0  0  0  0  0  0  0  0  0  0  0
   -5.4354    1.1181   -2.7991 H   0  0  0  0  0  0  0  0  0  0  0  0
   -5.8556   -0.4109    1.2146 H   0  0  0  0  0  0  0  0  0  0  0  0
    8.4834   -1.1560   -1.3332 H   0  0  0  0  0  0  0  0  0  0  0  0
    7.2007   -0.6060   -2.4061 H   0  0  0  0  0  0  0  0  0  0  0  0
    7.1420   -2.2542   -1.6390 H   0  0  0  0  0  0  0  0  0  0  0  0
  1 31  1  0  0  0  0
  2 24  1  0  0  0  0
  3 30  1  0  0  0  0
  3 32  1  0  0  0  0
  4  6  1  0  0  0  0
  4 10  1  0  0  0  0
  4 35  1  0  0  0  0
  5  7  1  0  0  0  0
  5 11  1  0  0  0  0
  5 36  1  0  0  0  0
  6  7  1  0  0  0  0
  6  8  1  0  0  0  0
  6 33  1  0  0  0  0
  7  9  1  0  0  0  0
  7 34  1  0  0  0  0
  8 12  2  0  0  0  0
  8 13  1  0  0  0  0
  9 14  2  0  0  0  0
  9 15  1  0  0  0  0
 10 20  2  0  0  0  0
 10 21  1  0  0  0  0
 11 22  2  0  0  0  0
 11 23  1  0  0  0  0
 12 16  1  0  0  0  0
 12 37  1  0  0  0  0
 13 17  2  0  0  0  0
 13 38  1  0  0  0  0
 14 18  1  0  0  0  0
 14 39  1  0  0  0  0
 15 19  2  0  0  0  0
 15 40  1  0  0  0  0
 16 24  2  0  0  0  0
 16 41  1  0  0  0  0
 17 24  1  0  0  0  0
 17 42  1  0  0  0  0
 18 25  2  0  0  0  0
 18 43  1  0  0  0  0
 19 25  1  0  0  0  0
 19 44  1  0  0  0  0
 20 26  1  0  0  0  0
 20 45  1  0  0  0  0
 21 27  2  0  0  0  0
 21 46  1  0  0  0  0
 22 28  1  0  0  0  0
 22 47  1  0  0  0  0
 23 29  2  0  0  0  0
 23 48  1  0  0  0  0
 25 49  1  0  0  0  0
 26 30  2  0  0  0  0
 26 50  1  0  0  0  0
 27 30  1  0  0  0  0
 27 51  1  0  0  0  0
 28 31  2  0  0  0  0
 28 52  1  0  0  0  0
 29 31  1  0  0  0  0
 29 53  1  0  0  0  0
 32 54  1  0  0  0  0
 32 55  1  0  0  0  0
 32 56  1  0  0  0  0
M  END
> <PUBCHEM_COMPOUND_CID>
101185461

> <PUBCHEM_CONFORMER_RMSD>
1

> <PUBCHEM_CONFORMER_DIVERSEORDER>
2
21
32
27
26
24
29
1
18
16
3
38
8
35
20
23
25
12
31
6
30
7
19
28
34
4
22
13
10
33
15
37
17
36
11
9
5
14

> <PUBCHEM_MMFF94_PARTIAL_CHARGES>
51
1 -0.11
10 0.1
11 0.1
12 -0.15
13 -0.15
14 -0.15
15 -0.15
16 -0.15
17 -0.15
18 -0.15
19 -0.15
2 -0.18
20 -0.15
21 -0.15
22 -0.15
23 -0.15
24 0.18
25 -0.15
26 -0.15
27 -0.15
28 -0.15
29 -0.15
3 -0.36
30 0.08
31 0.11
32 0.28
35 0.4
36 0.4
37 0.15
38 0.15
39 0.15
4 -0.87
40 0.15
41 0.15
42 0.15
43 0.15
44 0.15
45 0.15
46 0.15
47 0.15
48 0.15
49 0.15
5 -0.87
50 0.15
51 0.15
52 0.15
53 0.15
6 0.51
7 0.51
8 -0.14
9 -0.14

> <PUBCHEM_EFFECTIVE_ROTOR_COUNT>
8

> <PUBCHEM_PHARMACOPHORE_FEATURES>
10
1 1 hydrophobe
1 3 acceptor
1 4 cation
1 4 donor
1 5 cation
1 5 donor
6 10 20 21 26 27 30 rings
6 11 22 23 28 29 31 rings
6 8 12 13 16 17 24 rings
6 9 14 15 18 19 25 rings

> <PUBCHEM_HEAVY_ATOM_COUNT>
32

> <PUBCHEM_ATOM_DEF_STEREO_COUNT>
2

> <PUBCHEM_ATOM_UDEF_STEREO_COUNT>
0

> <PUBCHEM_BOND_DEF_STEREO_COUNT>
0

> <PUBCHEM_BOND_UDEF_STEREO_COUNT>
0

> <PUBCHEM_ISOTOPIC_ATOM_COUNT>
0

> <PUBCHEM_COMPONENT_COUNT>
1

> <PUBCHEM_CACTVS_TAUTO_COUNT>
4

> <PUBCHEM_CONFORMER_ID>
0607F7B500000002

> <PUBCHEM_MMFF94_ENERGY>
124.1228

> <PUBCHEM_FEATURE_SELFOVERLAP>
50.748

> <PUBCHEM_SHAPE_FINGERPRINT>
10165383 225 18040718031250817855
102385 1 17906454681285104240
10906281 52 18201175303072525348
10930396 42 18197469936682293586
11297750 10 17901117617548114203
11421498 54 18193269685909876089
11445158 3 17682444447778141361
11578080 2 18044380662737678124
11607047 74 17056370527015963849
12293681 160 18337384929324402184
12788726 201 18338231540941338672
13149001 5 18338233881244963979
13540713 4 18122625217141704747
13911987 19 18334018250532374711
140371 6 18340783576128031308
15198563 99 18268997479684654596
15351339 4 18190171287685604635
15439362 3 18268420420842734577
15775530 1 17905888428707658163
16090146 7 17897469232272524358
16114785 44 17983602726919449928
16628084 112 18122062009912894406
19319366 153 17385991854500724866
20600515 1 18200054905198091560
20642791 239 17970086602330904708
20775438 99 17693063655591004039
21285901 2 17988646229626284908
21639891 77 18189071930334318843
22440779 20 16520225571140601490
23558518 356 17615689535911058602
23559900 14 18270396234351819464
23576562 1 18115589399865992831
266924 87 18051412872804701302
283562 15 18195249914572377864
3027735 51 18123473774014887434
3178227 256 18335709334577161355
3298306 158 18260261924268232843
3380486 77 18261673675569752544
340366 18 18041566939361799270
4015057 19 17988075707466159490
44802255 64 17603595105822457790
5171179 24 18050291667344956266
5265222 85 17968386744205515574
6004065 56 18201715176156070503
7226269 152 18408887308993174878

> <PUBCHEM_SHAPE_MULTIPOLES>
650.53
13.4
6.32
1.75
0.99
4.93
0.18
-3.23
-8.92
0.37
3.24
-0.15
-0.32
2.38

> <PUBCHEM_SHAPE_SELFOVERLAP>
1390.584

> <PUBCHEM_SHAPE_VOLUME>
370

> <PUBCHEM_COORDINATE_TYPE>
2
5
10

$$$$
