101614132
  -OEChem-02172602463D

 45 48  0     1  0  0  0  0  0999 V2000
   -3.4423    0.5638    1.8676 O   0  0  0  0  0  0  0  0  0  0  0  0
    4.9576   -1.8090    1.0615 O   0  0  0  0  0  0  0  0  0  0  0  0
   -0.9713   -0.2035   -0.7207 C   0  0  1  0  0  0  0  0  0  0  0  0
    0.1370    0.4967   -1.5662 C   0  0  1  0  0  0  0  0  0  0  0  0
   -1.8949    0.7964    0.0205 C   0  0  2  0  0  0  0  0  0  0  0  0
    0.8930    1.6137   -0.7879 C   0  0  1  0  0  0  0  0  0  0  0  0
   -1.0168    1.7029    0.9089 C   0  0  0  0  0  0  0  0  0  0  0  0
    0.0224    2.4836    0.1126 C   0  0  0  0  0  0  0  0  0  0  0  0
   -1.7807   -1.2148   -1.5597 C   0  0  0  0  0  0  0  0  0  0  0  0
    1.2578   -0.4919   -1.9853 C   0  0  0  0  0  0  0  0  0  0  0  0
   -2.8574    0.0120    0.9332 C   0  0  0  0  0  0  0  0  0  0  0  0
    1.9851    0.8154   -0.1231 C   0  0  0  0  0  0  0  0  0  0  0  0
   -3.0573   -1.7066   -0.8691 C   0  0  0  0  0  0  0  0  0  0  0  0
   -3.0454   -1.4779    0.6423 C   0  0  2  0  0  0  0  0  0  0  0  0
   -2.7607    1.6453   -0.9295 C   0  0  0  0  0  0  0  0  0  0  0  0
    2.2004   -0.3785   -0.8256 C   0  0  0  0  0  0  0  0  0  0  0  0
   -4.3328   -2.0062    1.2708 C   0  0  0  0  0  0  0  0  0  0  0  0
    2.7705    1.1384    0.9719 C   0  0  0  0  0  0  0  0  0  0  0  0
    3.1936   -1.2676   -0.4505 C   0  0  0  0  0  0  0  0  0  0  0  0
    3.7659    0.2409    1.3671 C   0  0  0  0  0  0  0  0  0  0  0  0
    3.9763   -0.9532    0.6611 C   0  0  0  0  0  0  0  0  0  0  0  0
   -0.4610   -0.7966    0.0540 H   0  0  0  0  0  0  0  0  0  0  0  0
   -0.3295    0.9218   -2.4637 H   0  0  0  0  0  0  0  0  0  0  0  0
    1.3934    2.2721   -1.5127 H   0  0  0  0  0  0  0  0  0  0  0  0
   -0.5104    1.0965    1.6720 H   0  0  0  0  0  0  0  0  0  0  0  0
   -1.6407    2.4162    1.4630 H   0  0  0  0  0  0  0  0  0  0  0  0
   -0.4972    3.2185   -0.5147 H   0  0  0  0  0  0  0  0  0  0  0  0
    0.6380    3.0730    0.8017 H   0  0  0  0  0  0  0  0  0  0  0  0
   -1.1544   -2.0888   -1.7729 H   0  0  0  0  0  0  0  0  0  0  0  0
   -2.0452   -0.7883   -2.5351 H   0  0  0  0  0  0  0  0  0  0  0  0
    1.7586   -0.1444   -2.8959 H   0  0  0  0  0  0  0  0  0  0  0  0
    0.9111   -1.5162   -2.1330 H   0  0  0  0  0  0  0  0  0  0  0  0
   -3.9203   -1.1936   -1.3123 H   0  0  0  0  0  0  0  0  0  0  0  0
   -3.1964   -2.7717   -1.0923 H   0  0  0  0  0  0  0  0  0  0  0  0
   -2.1985   -2.0091    1.0936 H   0  0  0  0  0  0  0  0  0  0  0  0
   -3.5031    1.0436   -1.4620 H   0  0  0  0  0  0  0  0  0  0  0  0
   -2.1649    2.1673   -1.6836 H   0  0  0  0  0  0  0  0  0  0  0  0
   -3.3216    2.4032   -0.3695 H   0  0  0  0  0  0  0  0  0  0  0  0
   -5.2096   -1.4661    0.8965 H   0  0  0  0  0  0  0  0  0  0  0  0
   -4.3128   -1.8892    2.3597 H   0  0  0  0  0  0  0  0  0  0  0  0
   -4.4666   -3.0706    1.0517 H   0  0  0  0  0  0  0  0  0  0  0  0
    2.6322    2.0664    1.5155 H   0  0  0  0  0  0  0  0  0  0  0  0
    3.3572   -2.1857   -1.0052 H   0  0  0  0  0  0  0  0  0  0  0  0
    4.3836    0.4855    2.2280 H   0  0  0  0  0  0  0  0  0  0  0  0
    5.4008   -1.4368    1.8432 H   0  0  0  0  0  0  0  0  0  0  0  0
  1 11  2  0  0  0  0
  2 21  1  0  0  0  0
  2 45  1  0  0  0  0
  3  4  1  0  0  0  0
  3  5  1  0  0  0  0
  3  9  1  0  0  0  0
  3 22  1  0  0  0  0
  4  6  1  0  0  0  0
  4 10  1  0  0  0  0
  4 23  1  0  0  0  0
  5  7  1  0  0  0  0
  5 11  1  0  0  0  0
  5 15  1  0  0  0  0
  6  8  1  0  0  0  0
  6 12  1  0  0  0  0
  6 24  1  0  0  0  0
  7  8  1  0  0  0  0
  7 25  1  0  0  0  0
  7 26  1  0  0  0  0
  8 27  1  0  0  0  0
  8 28  1  0  0  0  0
  9 13  1  0  0  0  0
  9 29  1  0  0  0  0
  9 30  1  0  0  0  0
 10 16  1  0  0  0  0
 10 31  1  0  0  0  0
 10 32  1  0  0  0  0
 11 14  1  0  0  0  0
 12 16  2  0  0  0  0
 12 18  1  0  0  0  0
 13 14  1  0  0  0  0
 13 33  1  0  0  0  0
 13 34  1  0  0  0  0
 14 17  1  0  0  0  0
 14 35  1  0  0  0  0
 15 36  1  0  0  0  0
 15 37  1  0  0  0  0
 15 38  1  0  0  0  0
 16 19  1  0  0  0  0
 17 39  1  0  0  0  0
 17 40  1  0  0  0  0
 17 41  1  0  0  0  0
 18 20  2  0  0  0  0
 18 42  1  0  0  0  0
 19 21  2  0  0  0  0
 19 43  1  0  0  0  0
 20 21  1  0  0  0  0
 20 44  1  0  0  0  0
M  END
> <PUBCHEM_COMPOUND_CID>
101614132

> <PUBCHEM_CONFORMER_RMSD>
0.6

> <PUBCHEM_CONFORMER_DIVERSEORDER>
1
2

> <PUBCHEM_MMFF94_PARTIAL_CHARGES>
17
1 -0.57
10 0.14
11 0.45
12 -0.14
14 0.06
16 -0.14
18 -0.15
19 -0.15
2 -0.53
20 -0.15
21 0.08
42 0.15
43 0.15
44 0.15
45 0.45
5 0.06
6 0.14

> <PUBCHEM_EFFECTIVE_ROTOR_COUNT>
1.2

> <PUBCHEM_PHARMACOPHORE_FEATURES>
6
1 1 acceptor
1 2 donor
5 4 6 10 12 16 rings
6 12 16 18 19 20 21 rings
6 3 4 5 6 7 8 rings
6 3 5 9 11 13 14 rings

> <PUBCHEM_HEAVY_ATOM_COUNT>
21

> <PUBCHEM_ATOM_DEF_STEREO_COUNT>
4

> <PUBCHEM_ATOM_UDEF_STEREO_COUNT>
1

> <PUBCHEM_BOND_DEF_STEREO_COUNT>
0

> <PUBCHEM_BOND_UDEF_STEREO_COUNT>
0

> <PUBCHEM_ISOTOPIC_ATOM_COUNT>
0

> <PUBCHEM_COMPONENT_COUNT>
1

> <PUBCHEM_CACTVS_TAUTO_COUNT>
110

> <PUBCHEM_CONFORMER_ID>
060E823400000001

> <PUBCHEM_MMFF94_ENERGY>
64.6777

> <PUBCHEM_FEATURE_SELFOVERLAP>
30.7

> <PUBCHEM_SHAPE_FINGERPRINT>
10948715 1 11527956650842321365
11221954 11 13253146401286343147
11370993 144 17274545296127732098
11552529 35 17417517133618165110
11578080 2 17676476276734329500
11640471 11 12535342329678137588
11796584 16 17313935450506347427
12173636 292 9439407968721103781
12202030 40 17314226846656570655
12251169 10 17846495920258088996
12346177 29 17968366867101813093
12363563 72 18113619018651188587
12382932 28 17703795829211412141
12553582 1 18269845366003979079
12633257 1 17917989434850658162
12670546 177 12179842818373970627
12714826 92 18186806850629050965
12824470 246 17675918806973872099
12892183 10 18059853986969727834
13083527 12 17700681037714156967
13103583 49 18341059523112690770
13140716 1 18344145882147712868
13224815 77 18131349730502740284
13296908 3 18260824895469215012
13544653 18 18261666056276683190
13583140 156 18270384079604765184
13693222 15 18201151147907200166
14142880 1 12751223801392720659
14178342 30 17846227656643063423
15209289 33 18335703815117431058
15375462 189 18269562812911459341
15475509 35 17683542988907079683
16752209 62 13913142670153909367
16945 1 17774445988315515732
17349148 13 17703502290151479037
17780758 139 18191851337580301138
17980427 26 11986630154246928716
1813 80 18113910342430982118
18186145 218 8862667953523239380
18981168 100 11455899086884975781
193927 3 17822014224218677714
19862831 5 11602812506288810574
200 152 15357984400461124892
20361792 2 17313105245917150092
20871999 31 13479131276542203566
21713013 43 13840564993856472169
21731228 192 16630808819938677678
21731516 1 17022904553423381196
21756936 100 15337980057736027808
21864079 5 13973393729596755466
22646028 28 17240482507223912050
22907989 373 9006758913577672531
23227448 37 11599717407138031739
23382010 3 10809344442746678980
23419403 2 15622517152654626045
23557571 272 14619684504171906319
23559900 14 18334849477529152788
238 59 12757425106918355121
2748010 2 17916324761361498485
2838139 119 12319187161267855467
394222 165 17623589939252578817
4072396 5 18058747887516585019
4280585 95 13338068226183535512
4340502 62 17488479494537962657
5104073 3 18341040849011359552
5161694 15 11458414726645084530
5262128 65 14490474209364055863
7097593 13 18131068191270474598
90316 7 18342742896816026097

> <PUBCHEM_SHAPE_MULTIPOLES>
420.43
7.81
2.24
1.72
2.63
0.32
-0.14
-4.79
4.14
-0.65
0.2
-0.32
-0.24
0.08

> <PUBCHEM_SHAPE_SELFOVERLAP>
919.545

> <PUBCHEM_SHAPE_VOLUME>
228

> <PUBCHEM_COORDINATE_TYPE>
2
5
10

$$$$
