10141648
  -OEChem-02172602513D

 56 59  0     0  0  0  0  0  0999 V2000
   -2.6834    1.9376    0.2086 S   0  0  0  0  0  0  0  0  0  0  0  0
   -8.6716   -2.2150    1.2545 F   0  0  0  0  0  0  0  0  0  0  0  0
   -9.2816   -0.7495   -0.2234 F   0  0  0  0  0  0  0  0  0  0  0  0
   -8.5597   -2.6987   -0.8626 F   0  0  0  0  0  0  0  0  0  0  0  0
    1.3822   -0.4747    0.3451 O   0  0  0  0  0  0  0  0  0  0  0  0
    6.6340   -1.9778   -0.3985 O   0  0  0  0  0  0  0  0  0  0  0  0
    9.7904   -0.3208   -0.7943 O   0  0  0  0  0  0  0  0  0  0  0  0
    9.2422   -2.2105    0.3529 O   0  0  0  0  0  0  0  0  0  0  0  0
   -0.6746    0.4902   -0.4773 C   0  0  0  0  0  0  0  0  0  0  0  0
   -1.0027    1.7700   -0.0812 C   0  0  0  0  0  0  0  0  0  0  0  0
   -2.9738    0.2992   -0.1957 C   0  0  0  0  0  0  0  0  0  0  0  0
   -1.8156   -0.3605   -0.5435 C   0  0  0  0  0  0  0  0  0  0  0  0
    0.6998    0.0346   -0.8006 C   0  0  0  0  0  0  0  0  0  0  0  0
   -4.3254   -0.2051   -0.1369 C   0  0  0  0  0  0  0  0  0  0  0  0
   -0.1536    2.9205    0.1092 C   0  0  0  0  0  0  0  0  0  0  0  0
   -5.1444   -0.1324   -1.2629 C   0  0  0  0  0  0  0  0  0  0  0  0
   -4.8101   -0.7627    1.0453 C   0  0  0  0  0  0  0  0  0  0  0  0
    2.6855   -0.8487    0.1651 C   0  0  0  0  0  0  0  0  0  0  0  0
    0.0892    3.7909   -0.9536 C   0  0  0  0  0  0  0  0  0  0  0  0
    0.4253    3.1627    1.3550 C   0  0  0  0  0  0  0  0  0  0  0  0
   -6.9366   -1.1768   -0.0242 C   0  0  0  0  0  0  0  0  0  0  0  0
   -6.4507   -0.6185   -1.2066 C   0  0  0  0  0  0  0  0  0  0  0  0
   -6.1163   -1.2489    1.1017 C   0  0  0  0  0  0  0  0  0  0  0  0
    4.7423   -1.7367    1.0538 C   0  0  0  0  0  0  0  0  0  0  0  0
    3.4133   -1.3549    1.2377 C   0  0  0  0  0  0  0  0  0  0  0  0
    5.3369   -1.6105   -0.2017 C   0  0  0  0  0  0  0  0  0  0  0  0
    3.2734   -0.7206   -1.0894 C   0  0  0  0  0  0  0  0  0  0  0  0
    0.9108    4.9031   -0.7707 C   0  0  0  0  0  0  0  0  0  0  0  0
    1.2469    4.2750    1.5379 C   0  0  0  0  0  0  0  0  0  0  0  0
    4.6023   -1.1025   -1.2734 C   0  0  0  0  0  0  0  0  0  0  0  0
   -8.3328   -1.6972    0.0366 C   0  0  0  0  0  0  0  0  0  0  0  0
    1.4896    5.1451    0.4749 C   0  0  0  0  0  0  0  0  0  0  0  0
    5.5135   -2.2778    2.2119 C   0  0  0  0  0  0  0  0  0  0  0  0
    7.5338   -0.9653   -0.8446 C   0  0  0  0  0  0  0  0  0  0  0  0
    8.9216   -1.2630   -0.3488 C   0  0  0  0  0  0  0  0  0  0  0  0
   -1.7868   -1.4047   -0.8312 H   0  0  0  0  0  0  0  0  0  0  0  0
    0.6269   -0.7523   -1.5639 H   0  0  0  0  0  0  0  0  0  0  0  0
    1.2459    0.8879   -1.2236 H   0  0  0  0  0  0  0  0  0  0  0  0
   -4.7810    0.2991   -2.1926 H   0  0  0  0  0  0  0  0  0  0  0  0
   -4.1834   -0.8272    1.9317 H   0  0  0  0  0  0  0  0  0  0  0  0
   -0.3530    3.6161   -1.9317 H   0  0  0  0  0  0  0  0  0  0  0  0
    0.2481    2.4932    2.1936 H   0  0  0  0  0  0  0  0  0  0  0  0
   -7.0822   -0.5582   -2.0890 H   0  0  0  0  0  0  0  0  0  0  0  0
   -6.4766   -1.6804    2.0314 H   0  0  0  0  0  0  0  0  0  0  0  0
    2.9392   -1.4482    2.2114 H   0  0  0  0  0  0  0  0  0  0  0  0
    2.7663   -0.3466   -1.9714 H   0  0  0  0  0  0  0  0  0  0  0  0
    5.0498   -1.0084   -2.2593 H   0  0  0  0  0  0  0  0  0  0  0  0
    1.1004    5.5803   -1.5984 H   0  0  0  0  0  0  0  0  0  0  0  0
    1.6983    4.4633    2.5076 H   0  0  0  0  0  0  0  0  0  0  0  0
    2.1297    6.0109    0.6174 H   0  0  0  0  0  0  0  0  0  0  0  0
    5.8640   -3.2923    1.9950 H   0  0  0  0  0  0  0  0  0  0  0  0
    6.3764   -1.6382    2.4255 H   0  0  0  0  0  0  0  0  0  0  0  0
    4.9058   -2.3271    3.1218 H   0  0  0  0  0  0  0  0  0  0  0  0
    7.2382    0.0172   -0.4570 H   0  0  0  0  0  0  0  0  0  0  0  0
    7.5447   -0.9612   -1.9393 H   0  0  0  0  0  0  0  0  0  0  0  0
   10.7056   -0.4913   -0.4852 H   0  0  0  0  0  0  0  0  0  0  0  0
  1 10  1  0  0  0  0
  1 11  1  0  0  0  0
  2 31  1  0  0  0  0
  3 31  1  0  0  0  0
  4 31  1  0  0  0  0
  5 13  1  0  0  0  0
  5 18  1  0  0  0  0
  6 26  1  0  0  0  0
  6 34  1  0  0  0  0
  7 35  1  0  0  0  0
  7 56  1  0  0  0  0
  8 35  2  0  0  0  0
  9 10  2  0  0  0  0
  9 12  1  0  0  0  0
  9 13  1  0  0  0  0
 10 15  1  0  0  0  0
 11 12  2  0  0  0  0
 11 14  1  0  0  0  0
 12 36  1  0  0  0  0
 13 37  1  0  0  0  0
 13 38  1  0  0  0  0
 14 16  2  0  0  0  0
 14 17  1  0  0  0  0
 15 19  2  0  0  0  0
 15 20  1  0  0  0  0
 16 22  1  0  0  0  0
 16 39  1  0  0  0  0
 17 23  2  0  0  0  0
 17 40  1  0  0  0  0
 18 25  2  0  0  0  0
 18 27  1  0  0  0  0
 19 28  1  0  0  0  0
 19 41  1  0  0  0  0
 20 29  2  0  0  0  0
 20 42  1  0  0  0  0
 21 22  2  0  0  0  0
 21 23  1  0  0  0  0
 21 31  1  0  0  0  0
 22 43  1  0  0  0  0
 23 44  1  0  0  0  0
 24 25  1  0  0  0  0
 24 26  2  0  0  0  0
 24 33  1  0  0  0  0
 25 45  1  0  0  0  0
 26 30  1  0  0  0  0
 27 30  2  0  0  0  0
 27 46  1  0  0  0  0
 28 32  2  0  0  0  0
 28 48  1  0  0  0  0
 29 32  1  0  0  0  0
 29 49  1  0  0  0  0
 30 47  1  0  0  0  0
 32 50  1  0  0  0  0
 33 51  1  0  0  0  0
 33 52  1  0  0  0  0
 33 53  1  0  0  0  0
 34 35  1  0  0  0  0
 34 54  1  0  0  0  0
 34 55  1  0  0  0  0
M  END
> <PUBCHEM_COMPOUND_CID>
10141648

> <PUBCHEM_CONFORMER_RMSD>
1

> <PUBCHEM_CONFORMER_DIVERSEORDER>
2
59
75
84
79
92
56
73
86
55
88
6
40
72
10
51
63
64
70
69
41
23
57
65
37
43
78
49
54
3
91
76
61
14
67
90
19
4
7
16
53
66
62
32
5
39
27
89
35
81
74
1
31
13
46
80
50
9
30
85
45
15
28
48
8
58
25
71
22
36
87
20
12
26
52
29
11
83
34
77
68
60
17
21
47
42
18
82
44
24
38
33

> <PUBCHEM_MMFF94_PARTIAL_CHARGES>
49
1 -0.08
10 -0.01
11 -0.01
12 -0.15
13 0.46
14 0.05
15 0.05
16 -0.15
17 -0.15
18 0.08
19 -0.15
2 -0.34
20 -0.15
21 -0.14
22 -0.15
23 -0.15
24 -0.14
25 -0.15
26 0.08
27 -0.15
28 -0.15
29 -0.15
3 -0.34
30 -0.15
31 1.16
32 -0.15
33 0.14
34 0.34
35 0.66
36 0.15
39 0.15
4 -0.34
40 0.15
41 0.15
42 0.15
43 0.15
44 0.15
45 0.15
46 0.15
47 0.15
48 0.15
49 0.15
5 -0.36
50 0.15
56 0.5
6 -0.36
7 -0.65
8 -0.57
9 -0.18

> <PUBCHEM_EFFECTIVE_ROTOR_COUNT>
9

> <PUBCHEM_PHARMACOPHORE_FEATURES>
9
1 5 acceptor
1 6 acceptor
1 7 acceptor
1 8 acceptor
3 7 8 35 anion
5 1 9 10 11 12 rings
6 14 16 17 21 22 23 rings
6 15 19 20 28 29 32 rings
6 18 24 25 26 27 30 rings

> <PUBCHEM_HEAVY_ATOM_COUNT>
35

> <PUBCHEM_ATOM_DEF_STEREO_COUNT>
0

> <PUBCHEM_ATOM_UDEF_STEREO_COUNT>
0

> <PUBCHEM_BOND_DEF_STEREO_COUNT>
0

> <PUBCHEM_BOND_UDEF_STEREO_COUNT>
0

> <PUBCHEM_ISOTOPIC_ATOM_COUNT>
0

> <PUBCHEM_COMPONENT_COUNT>
1

> <PUBCHEM_CACTVS_TAUTO_COUNT>
1

> <PUBCHEM_CONFORMER_ID>
009ABFD000000002

> <PUBCHEM_MMFF94_ENERGY>
98.6427

> <PUBCHEM_FEATURE_SELFOVERLAP>
45.736

> <PUBCHEM_SHAPE_FINGERPRINT>
10050765 1 18123188176724745023
10411042 1 18411419496761693261
11297750 10 18261383456288567285
11443803 9 13407073730134090008
12342043 65 17201369460294514422
12741549 16 17775284941431023945
12788726 201 18262516966855579738
12977781 61 17535200152825468107
13150687 139 12107784082381235480
13540713 5 17557975423856359831
13631057 29 18335422306002086224
13673619 4 18259702303193436957
13692115 27 18412263905018273669
13782708 43 18114738348403085775
14068700 675 18343304765007147993
14394314 77 18338240336718272065
15183329 4 15574710284142368859
15927050 60 17836647796160287237
16067689 302 18343585174800496004
16991971 28 18412271639795269422
16993427 108 18262223431231316219
17686467 74 18413384329158123968
20554085 129 11602820245857100812
20771845 65 18202565107298119081
21049683 271 18334858337777919316
21796203 349 18267048165610478675
21927370 108 18342743974757683432
23559900 14 17459193040296137701
23729398 52 18265338489565585604
249999 5 18195807599070383505
25019877 29 16630527319181361172
255183 451 18411135861848923549
32027 91 18261393403822701739
4461854 278 17846500352364698511
469060 322 18197229057130225184
5219985 9 18410575067557322616
5385378 56 18125436664654733305
54039377 194 18410012148312569359
58083652 198 18336274508564480377
6057620 51 18334017156228421690
6058803 2 17465375319058739594
6697151 62 18267277942641178381
9663363 56 18413386527959755415
9962374 69 18200589324127196047

> <PUBCHEM_SHAPE_MULTIPOLES>
678.83
27.12
5.1
1.39
0.47
10.35
0.39
-36.05
-2.16
1.98
1.12
0.66
-0.13
-0.08

> <PUBCHEM_SHAPE_SELFOVERLAP>
1472.891

> <PUBCHEM_SHAPE_VOLUME>
377

> <PUBCHEM_COORDINATE_TYPE>
2
5
10

$$$$
