10043230
  -OEChem-02172602283D

 47 49  0     1  0  0  0  0  0999 V2000
    2.1017    2.8268   -0.3143 O   0  0  0  0  0  0  0  0  0  0  0  0
   -1.4755   -0.2636   -0.3559 O   0  0  0  0  0  0  0  0  0  0  0  0
    1.8383   -2.8613   -2.4887 O   0  0  0  0  0  0  0  0  0  0  0  0
    0.8234    4.5842   -1.0536 O   0  0  0  0  0  0  0  0  0  0  0  0
   -1.3479   -0.0019    1.9268 O   0  0  0  0  0  0  0  0  0  0  0  0
   -4.4310   -0.2126   -1.3555 O   0  0  0  0  0  0  0  0  0  0  0  0
    0.4560   -1.4464    0.3553 C   0  0  1  0  0  0  0  0  0  0  0  0
    1.9193   -1.5289    0.8227 C   0  0  1  0  0  0  0  0  0  0  0  0
   -0.0411   -0.2137   -0.4433 C   0  0  2  0  0  0  0  0  0  0  0  0
    0.4321    1.1757    0.0307 C   0  0  1  0  0  0  0  0  0  0  0  0
    2.6922   -1.9534   -0.4292 C   0  0  0  0  0  0  0  0  0  0  0  0
    1.9227    1.3990   -0.2157 C   0  0  2  0  0  0  0  0  0  0  0  0
    0.4085   -2.6769   -0.5418 C   0  0  0  0  0  0  0  0  0  0  0  0
    1.7820   -2.9997   -1.0788 C   0  0  1  0  0  0  0  0  0  0  0  0
    2.4269   -0.3422    1.5969 C   0  0  0  0  0  0  0  0  0  0  0  0
    2.8723    0.8914    0.8672 C   0  0  0  0  0  0  0  0  0  0  0  0
   -0.0941    2.3700   -0.7181 C   0  0  0  0  0  0  0  0  0  0  0  0
    0.9519    3.4150   -0.7396 C   0  0  0  0  0  0  0  0  0  0  0  0
   -0.6735   -3.4428   -0.7312 C   0  0  0  0  0  0  0  0  0  0  0  0
    2.4807   -0.3826    2.9400 C   0  0  0  0  0  0  0  0  0  0  0  0
   -1.2530    2.5960   -1.3440 C   0  0  0  0  0  0  0  0  0  0  0  0
   -1.9901   -0.1445    0.8957 C   0  0  0  0  0  0  0  0  0  0  0  0
   -3.4773   -0.2165    0.8311 C   0  0  0  0  0  0  0  0  0  0  0  0
   -4.1651   -1.0311   -0.2241 C   0  0  0  0  0  0  0  0  0  0  0  0
   -4.1595    0.4600    1.7673 C   0  0  0  0  0  0  0  0  0  0  0  0
   -0.1555   -1.6893    1.2276 H   0  0  0  0  0  0  0  0  0  0  0  0
    1.9835   -2.3953    1.5050 H   0  0  0  0  0  0  0  0  0  0  0  0
    0.2023   -0.3237   -1.5084 H   0  0  0  0  0  0  0  0  0  0  0  0
    0.2206    1.3667    1.0873 H   0  0  0  0  0  0  0  0  0  0  0  0
    2.8879   -1.1237   -1.1153 H   0  0  0  0  0  0  0  0  0  0  0  0
    3.6657   -2.3861   -0.1715 H   0  0  0  0  0  0  0  0  0  0  0  0
    2.2271    0.9870   -1.1869 H   0  0  0  0  0  0  0  0  0  0  0  0
    2.0810   -4.0151   -0.7953 H   0  0  0  0  0  0  0  0  0  0  0  0
    3.0606    1.7038    1.5833 H   0  0  0  0  0  0  0  0  0  0  0  0
    3.8516    0.6990    0.4089 H   0  0  0  0  0  0  0  0  0  0  0  0
   -0.6243   -4.3357   -1.3449 H   0  0  0  0  0  0  0  0  0  0  0  0
   -1.6226   -3.1997   -0.2694 H   0  0  0  0  0  0  0  0  0  0  0  0
    2.1605   -1.2585    3.4949 H   0  0  0  0  0  0  0  0  0  0  0  0
    2.8430    0.4601    3.5195 H   0  0  0  0  0  0  0  0  0  0  0  0
    2.7606   -3.0084   -2.7598 H   0  0  0  0  0  0  0  0  0  0  0  0
   -2.0497    1.8648   -1.3753 H   0  0  0  0  0  0  0  0  0  0  0  0
   -1.4490    3.5340   -1.8544 H   0  0  0  0  0  0  0  0  0  0  0  0
   -5.1155   -1.4391    0.1373 H   0  0  0  0  0  0  0  0  0  0  0  0
   -3.5529   -1.8787   -0.5424 H   0  0  0  0  0  0  0  0  0  0  0  0
   -5.2447    0.4455    1.7835 H   0  0  0  0  0  0  0  0  0  0  0  0
   -3.6653    1.0482    2.5335 H   0  0  0  0  0  0  0  0  0  0  0  0
   -5.0298    0.4999   -1.0730 H   0  0  0  0  0  0  0  0  0  0  0  0
  1 12  1  0  0  0  0
  1 18  1  0  0  0  0
  2  9  1  0  0  0  0
  2 22  1  0  0  0  0
  3 14  1  0  0  0  0
  3 40  1  0  0  0  0
  4 18  2  0  0  0  0
  5 22  2  0  0  0  0
  6 24  1  0  0  0  0
  6 47  1  0  0  0  0
  7  8  1  0  0  0  0
  7  9  1  0  0  0  0
  7 13  1  0  0  0  0
  7 26  1  0  0  0  0
  8 11  1  0  0  0  0
  8 15  1  0  0  0  0
  8 27  1  0  0  0  0
  9 10  1  0  0  0  0
  9 28  1  0  0  0  0
 10 12  1  0  0  0  0
 10 17  1  0  0  0  0
 10 29  1  0  0  0  0
 11 14  1  0  0  0  0
 11 30  1  0  0  0  0
 11 31  1  0  0  0  0
 12 16  1  0  0  0  0
 12 32  1  0  0  0  0
 13 14  1  0  0  0  0
 13 19  2  0  0  0  0
 14 33  1  0  0  0  0
 15 16  1  0  0  0  0
 15 20  2  0  0  0  0
 16 34  1  0  0  0  0
 16 35  1  0  0  0  0
 17 18  1  0  0  0  0
 17 21  2  0  0  0  0
 19 36  1  0  0  0  0
 19 37  1  0  0  0  0
 20 38  1  0  0  0  0
 20 39  1  0  0  0  0
 21 41  1  0  0  0  0
 21 42  1  0  0  0  0
 22 23  1  0  0  0  0
 23 24  1  0  0  0  0
 23 25  2  0  0  0  0
 24 43  1  0  0  0  0
 24 44  1  0  0  0  0
 25 45  1  0  0  0  0
 25 46  1  0  0  0  0
M  END
> <PUBCHEM_COMPOUND_CID>
10043230

> <PUBCHEM_CONFORMER_RMSD>
0.8

> <PUBCHEM_CONFORMER_DIVERSEORDER>
1
10
13
11
7
22
2
16
8
12
19
25
15
5
18
4
9
17
3
14
6
26
20
21
24
23

> <PUBCHEM_MMFF94_PARTIAL_CHARGES>
34
1 -0.43
10 0.14
12 0.28
13 -0.28
14 0.42
15 -0.28
16 0.14
17 -0.12
18 0.71
19 -0.3
2 -0.43
20 -0.3
21 -0.3
22 0.71
23 -0.12
24 0.42
25 -0.3
3 -0.68
36 0.15
37 0.15
38 0.15
39 0.15
4 -0.57
40 0.4
41 0.15
42 0.15
45 0.15
46 0.15
47 0.4
5 -0.57
6 -0.68
7 0.14
8 0.14
9 0.28

> <PUBCHEM_EFFECTIVE_ROTOR_COUNT>
5

> <PUBCHEM_PHARMACOPHORE_FEATURES>
10
1 25 hydrophobe
1 3 acceptor
1 3 donor
1 4 acceptor
1 5 acceptor
1 6 acceptor
1 6 donor
5 1 10 12 17 18 rings
5 7 8 11 13 14 rings
7 7 8 9 10 12 15 16 rings

> <PUBCHEM_HEAVY_ATOM_COUNT>
25

> <PUBCHEM_ATOM_DEF_STEREO_COUNT>
6

> <PUBCHEM_ATOM_UDEF_STEREO_COUNT>
0

> <PUBCHEM_BOND_DEF_STEREO_COUNT>
0

> <PUBCHEM_BOND_UDEF_STEREO_COUNT>
0

> <PUBCHEM_ISOTOPIC_ATOM_COUNT>
0

> <PUBCHEM_COMPONENT_COUNT>
1

> <PUBCHEM_CACTVS_TAUTO_COUNT>
1

> <PUBCHEM_CONFORMER_ID>
00993F5E00000001

> <PUBCHEM_MMFF94_ENERGY>
77.2896

> <PUBCHEM_FEATURE_SELFOVERLAP>
50.857

> <PUBCHEM_SHAPE_FINGERPRINT>
108634 29 17756119225598623253
11578080 2 17629455533281354913
116883 192 18192988210722435213
12156800 1 13919978505383807836
12160290 23 17320699362467166509
12553582 1 18193008014906444067
12788726 201 17393912568894853531
13134695 92 17968921063764276281
13140716 1 17829040262608217920
13583140 156 17604701309087967155
13681431 1 18335715918028990981
13965767 371 18340472469834537408
14790565 3 18264508328285017444
14817 1 12647807053662697626
14863182 85 17846213423174698775
14955137 171 18262528120911930192
15420108 30 18195523924743285265
16945 1 18190437485495460546
17357779 13 18194118517086037815
17492 54 18192180220237005790
1813 80 18125181345564183343
19765921 60 16025322374128155474
20600515 1 17677066632762626834
20691752 17 18338522941092247595
20739085 24 18411146804945123585
20775438 99 17330790710493798597
20905425 154 18040432178958919572
21524375 3 17613448056961840025
22182313 1 18124301723867307146
22907989 373 16755541537740578230
23352939 185 17769127599517658774
23419403 2 17484791624620958898
238 59 17973407127377716741
2748010 2 18122892149643818310
3060560 45 18339367486296749212
352729 6 17982457293311433611
394222 165 16889729742378166674
4409770 3 16755800983935931295
46194498 28 18190718956878707887
484985 159 14572318307587855216
484989 97 16463347362584711277
5845 1 14870567626987228738
5939293 188 18261387883861051329
6287921 2 18201167598038528291
81228 2 17684370559931399233

> <PUBCHEM_SHAPE_MULTIPOLES>
479.27
5.55
4.57
1.97
6.84
2.95
-0.86
-1.85
-1.63
-2.27
3.28
-0.59
-0.45
0.58

> <PUBCHEM_SHAPE_SELFOVERLAP>
1024.777

> <PUBCHEM_SHAPE_VOLUME>
265.8

> <PUBCHEM_COORDINATE_TYPE>
2
5
10

$$$$
