131752494
  -OEChem-02172602503D

 74 80  0     1  0  0  0  0  0999 V2000
    2.2804    0.4269   -2.4174 O   0  0  0  0  0  0  0  0  0  0  0  0
    0.5237    2.2838   -1.5678 O   0  0  0  0  0  0  0  0  0  0  0  0
    2.7906    2.3536    2.7313 O   0  0  0  0  0  0  0  0  0  0  0  0
   -2.9343   -0.5572    0.8021 O   0  0  0  0  0  0  0  0  0  0  0  0
   -0.2807   -0.2152    1.0255 O   0  0  0  0  0  0  0  0  0  0  0  0
    0.6924    3.8584    2.2050 O   0  0  0  0  0  0  0  0  0  0  0  0
   -2.1455   -4.9998   -1.0058 O   0  0  0  0  0  0  0  0  0  0  0  0
   -1.3707    3.0816   -3.3317 O   0  0  0  0  0  0  0  0  0  0  0  0
   -4.5634   -4.0064   -0.6783 O   0  0  0  0  0  0  0  0  0  0  0  0
   -4.5050    1.4933    1.6165 O   0  0  0  0  0  0  0  0  0  0  0  0
    3.9595   -2.0960   -0.5800 C   0  0  2  0  0  0  0  0  0  0  0  0
    4.4032   -0.6040   -0.8020 C   0  0  2  0  0  0  0  0  0  0  0  0
    4.3680   -2.5734    0.8332 C   0  0  0  0  0  0  0  0  0  0  0  0
    5.8606   -2.3908    1.1312 C   0  0  0  0  0  0  0  0  0  0  0  0
    5.7923   -0.3195   -0.2654 C   0  0  0  0  0  0  0  0  0  0  0  0
    4.6397   -3.0006   -1.6379 C   0  0  0  0  0  0  0  0  0  0  0  0
    6.4534   -1.1152    0.5928 C   0  0  0  0  0  0  0  0  0  0  0  0
    3.4087    0.4487   -0.3120 C   0  0  0  0  0  0  0  0  0  0  0  0
    2.4691   -2.2825   -0.7544 C   0  0  0  0  0  0  0  0  0  0  0  0
    2.3927    0.9139   -1.1477 C   0  0  0  0  0  0  0  0  0  0  0  0
    7.8405   -0.7873    1.0623 C   0  0  0  0  0  0  0  0  0  0  0  0
    3.5276    0.9430    0.9870 C   0  0  0  0  0  0  0  0  0  0  0  0
    1.5925   -2.2163    0.2595 C   0  0  0  0  0  0  0  0  0  0  0  0
    1.4934    1.8766   -0.6849 C   0  0  0  0  0  0  0  0  0  0  0  0
    2.6316    1.9041    1.4553 C   0  0  0  0  0  0  0  0  0  0  0  0
    1.6162    2.3672    0.6145 C   0  0  0  0  0  0  0  0  0  0  0  0
    0.1366   -2.4001    0.1374 C   0  0  0  0  0  0  0  0  0  0  0  0
    0.6576    3.3808    1.0806 C   0  0  0  0  0  0  0  0  0  0  0  0
   -0.7509   -1.3950    0.5234 C   0  0  0  0  0  0  0  0  0  0  0  0
   -0.3488   -3.6038   -0.3740 C   0  0  0  0  0  0  0  0  0  0  0  0
   -0.3688    3.8090    0.1178 C   0  0  0  0  0  0  0  0  0  0  0  0
   -0.3760    3.2347   -1.1530 C   0  0  0  0  0  0  0  0  0  0  0  0
   -2.1276   -1.5929    0.3993 C   0  0  0  0  0  0  0  0  0  0  0  0
   -1.7230   -3.8071   -0.5012 C   0  0  0  0  0  0  0  0  0  0  0  0
   -2.6077   -2.7977   -0.1130 C   0  0  0  0  0  0  0  0  0  0  0  0
   -1.3412    3.6267   -2.0828 C   0  0  0  0  0  0  0  0  0  0  0  0
   -1.3183    4.7729    0.4669 C   0  0  0  0  0  0  0  0  0  0  0  0
   -4.0617   -2.9840   -0.2347 C   0  0  0  0  0  0  0  0  0  0  0  0
   -4.9087   -1.8662    0.2087 C   0  0  0  0  0  0  0  0  0  0  0  0
   -2.2911    4.5893   -1.7392 C   0  0  0  0  0  0  0  0  0  0  0  0
   -2.2795    5.1611   -0.4667 C   0  0  0  0  0  0  0  0  0  0  0  0
   -4.2947   -0.7155    0.7025 C   0  0  0  0  0  0  0  0  0  0  0  0
   -5.0796    0.3576    1.1294 C   0  0  0  0  0  0  0  0  0  0  0  0
   -6.3016   -1.9533    0.1386 C   0  0  0  0  0  0  0  0  0  0  0  0
   -6.4710    0.2750    1.0618 C   0  0  0  0  0  0  0  0  0  0  0  0
   -7.0804   -0.8783    0.5672 C   0  0  0  0  0  0  0  0  0  0  0  0
    4.5034   -0.4552   -1.8877 H   0  0  0  0  0  0  0  0  0  0  0  0
    4.0980   -3.6255    0.9945 H   0  0  0  0  0  0  0  0  0  0  0  0
    3.8550   -1.9961    1.6109 H   0  0  0  0  0  0  0  0  0  0  0  0
    6.4190   -3.2366    0.7110 H   0  0  0  0  0  0  0  0  0  0  0  0
    6.0032   -2.4329    2.2183 H   0  0  0  0  0  0  0  0  0  0  0  0
    6.2710    0.5894   -0.6250 H   0  0  0  0  0  0  0  0  0  0  0  0
    5.7316   -2.9268   -1.6100 H   0  0  0  0  0  0  0  0  0  0  0  0
    4.3283   -2.7289   -2.6541 H   0  0  0  0  0  0  0  0  0  0  0  0
    4.3786   -4.0549   -1.4855 H   0  0  0  0  0  0  0  0  0  0  0  0
    2.0966   -2.4582   -1.7620 H   0  0  0  0  0  0  0  0  0  0  0  0
    8.5324   -1.5910    0.7906 H   0  0  0  0  0  0  0  0  0  0  0  0
    8.2184    0.1410    0.6212 H   0  0  0  0  0  0  0  0  0  0  0  0
    7.8546   -0.6686    2.1506 H   0  0  0  0  0  0  0  0  0  0  0  0
    4.2959    0.5849    1.6665 H   0  0  0  0  0  0  0  0  0  0  0  0
    1.8909   -1.9859    1.2757 H   0  0  0  0  0  0  0  0  0  0  0  0
    1.5195    0.8570   -2.8448 H   0  0  0  0  0  0  0  0  0  0  0  0
    0.3350   -4.3955   -0.6737 H   0  0  0  0  0  0  0  0  0  0  0  0
    2.1138    3.0142    2.9450 H   0  0  0  0  0  0  0  0  0  0  0  0
   -1.3258    5.2296    1.4524 H   0  0  0  0  0  0  0  0  0  0  0  0
   -1.0398    0.3592    1.2268 H   0  0  0  0  0  0  0  0  0  0  0  0
   -3.0474    4.9035   -2.4538 H   0  0  0  0  0  0  0  0  0  0  0  0
   -3.0206    5.9098   -0.2022 H   0  0  0  0  0  0  0  0  0  0  0  0
   -3.1138   -5.0272   -1.0461 H   0  0  0  0  0  0  0  0  0  0  0  0
   -6.7949   -2.8427   -0.2432 H   0  0  0  0  0  0  0  0  0  0  0  0
   -2.1059    3.4746   -3.8326 H   0  0  0  0  0  0  0  0  0  0  0  0
   -7.0933    1.1029    1.3913 H   0  0  0  0  0  0  0  0  0  0  0  0
   -8.1637   -0.9393    0.5158 H   0  0  0  0  0  0  0  0  0  0  0  0
   -5.2042    2.1242    1.8595 H   0  0  0  0  0  0  0  0  0  0  0  0
  1 20  1  0  0  0  0
  1 62  1  0  0  0  0
  2 24  1  0  0  0  0
  2 32  1  0  0  0  0
  3 25  1  0  0  0  0
  3 64  1  0  0  0  0
  4 33  1  0  0  0  0
  4 42  1  0  0  0  0
  5 29  1  0  0  0  0
  5 66  1  0  0  0  0
  6 28  2  0  0  0  0
  7 34  1  0  0  0  0
  7 69  1  0  0  0  0
  8 36  1  0  0  0  0
  8 71  1  0  0  0  0
  9 38  2  0  0  0  0
 10 43  1  0  0  0  0
 10 74  1  0  0  0  0
 11 12  1  0  0  0  0
 11 13  1  0  0  0  0
 11 16  1  0  0  0  0
 11 19  1  0  0  0  0
 12 15  1  0  0  0  0
 12 18  1  0  0  0  0
 12 47  1  0  0  0  0
 13 14  1  0  0  0  0
 13 48  1  0  0  0  0
 13 49  1  0  0  0  0
 14 17  1  0  0  0  0
 14 50  1  0  0  0  0
 14 51  1  0  0  0  0
 15 17  2  0  0  0  0
 15 52  1  0  0  0  0
 16 53  1  0  0  0  0
 16 54  1  0  0  0  0
 16 55  1  0  0  0  0
 17 21  1  0  0  0  0
 18 20  1  0  0  0  0
 18 22  2  0  0  0  0
 19 23  2  0  0  0  0
 19 56  1  0  0  0  0
 20 24  2  0  0  0  0
 21 57  1  0  0  0  0
 21 58  1  0  0  0  0
 21 59  1  0  0  0  0
 22 25  1  0  0  0  0
 22 60  1  0  0  0  0
 23 27  1  0  0  0  0
 23 61  1  0  0  0  0
 24 26  1  0  0  0  0
 25 26  2  0  0  0  0
 26 28  1  0  0  0  0
 27 29  1  0  0  0  0
 27 30  2  0  0  0  0
 28 31  1  0  0  0  0
 29 33  2  0  0  0  0
 30 34  1  0  0  0  0
 30 63  1  0  0  0  0
 31 32  2  0  0  0  0
 31 37  1  0  0  0  0
 32 36  1  0  0  0  0
 33 35  1  0  0  0  0
 34 35  2  0  0  0  0
 35 38  1  0  0  0  0
 36 40  2  0  0  0  0
 37 41  2  0  0  0  0
 37 65  1  0  0  0  0
 38 39  1  0  0  0  0
 39 42  2  0  0  0  0
 39 44  1  0  0  0  0
 40 41  1  0  0  0  0
 40 67  1  0  0  0  0
 41 68  1  0  0  0  0
 42 43  1  0  0  0  0
 43 45  2  0  0  0  0
 44 46  2  0  0  0  0
 44 70  1  0  0  0  0
 45 46  1  0  0  0  0
 45 72  1  0  0  0  0
 46 73  1  0  0  0  0
M  END
> <PUBCHEM_COMPOUND_CID>
131752494

> <PUBCHEM_CONFORMER_RMSD>
1

> <PUBCHEM_CONFORMER_DIVERSEORDER>
1
51
64
29
60
75
92
14
88
68
90
83
108
33
2
66
85
78
74
59
18
30
42
25
86
109
34
50
96
73
58
91
31
54
101
43
41
13
111
63
32
65
15
22
36
99
35
102
110
9
55
21
71
39
87
97
11
52
46
37
8
93
84
77
27
98
5
44
45
107
95
4
62
40
79
57
76
20
49
103
12
69
53
10
70
89
16
67
3
94
100
17
38
72
19
23
82
28
104
105
48
81
24
47
26
80
56
61
7
106
6

> <PUBCHEM_MMFF94_PARTIAL_CHARGES>
61
1 -0.53
10 -0.53
11 0.14
12 0.28
14 0.14
15 -0.29
17 -0.28
18 -0.14
19 -0.29
2 -0.17
20 0.08
21 0.14
22 -0.15
23 -0.18
24 0.08
25 0.08
26 0.09
27 0.03
28 0.4
29 0.08
3 -0.53
30 -0.15
31 0.09
32 0.08
33 0.08
34 0.08
35 0.09
36 0.08
37 -0.15
38 0.4
39 0.09
4 -0.17
40 -0.15
41 -0.15
42 0.08
43 0.08
44 -0.15
45 -0.15
46 -0.15
5 -0.53
52 0.15
56 0.15
6 -0.57
60 0.15
61 0.15
62 0.45
63 0.15
64 0.45
65 0.15
66 0.45
67 0.15
68 0.15
69 0.45
7 -0.53
70 0.15
71 0.45
72 0.15
73 0.15
74 0.45
8 -0.53
9 -0.57

> <PUBCHEM_EFFECTIVE_ROTOR_COUNT>
3.8

> <PUBCHEM_PHARMACOPHORE_FEATURES>
17
1 1 donor
1 10 donor
1 2 acceptor
1 3 donor
1 4 acceptor
1 5 donor
1 6 acceptor
1 7 donor
1 8 donor
1 9 acceptor
6 11 12 13 14 15 17 rings
6 18 20 22 24 25 26 rings
6 2 24 26 28 31 32 rings
6 27 29 30 33 34 35 rings
6 31 32 36 37 40 41 rings
6 39 42 43 44 45 46 rings
6 4 33 35 38 39 42 rings

> <PUBCHEM_HEAVY_ATOM_COUNT>
46

> <PUBCHEM_ATOM_DEF_STEREO_COUNT>
0

> <PUBCHEM_ATOM_UDEF_STEREO_COUNT>
2

> <PUBCHEM_BOND_DEF_STEREO_COUNT>
1

> <PUBCHEM_BOND_UDEF_STEREO_COUNT>
0

> <PUBCHEM_ISOTOPIC_ATOM_COUNT>
0

> <PUBCHEM_COMPONENT_COUNT>
1

> <PUBCHEM_CACTVS_TAUTO_COUNT>
986

> <PUBCHEM_CONFORMER_ID>
07DA622E00000001

> <PUBCHEM_MMFF94_ENERGY>
147.5078

> <PUBCHEM_FEATURE_SELFOVERLAP>
86.394

> <PUBCHEM_SHAPE_FINGERPRINT>
10290309 65 18196652883315870934
10439779 11 18052256498892080006
12156800 1 17899947505616731024
12539745 222 18041269964855808946
13636023 51 18058443390956200608
13692114 37 17976798923212947717
14028597 1 17603577496698702554
14725015 67 18335134263308451227
15276724 80 18260270755000237204
15320467 1 18341056241936816307
16993438 75 18118120273548370153
20764821 26 18334856160123479445
25223398 141 18188486861763663308
3493558 16 18056482987667492835
513532 50 17916882325557578398
550186 83 17895181247127515377
653340 110 18194686969077044878
9961470 85 18199461250855729043

> <PUBCHEM_SHAPE_MULTIPOLES>
887.97
14.35
7.37
1.86
1.98
5.07
-0.52
-11.76
4.59
-5.94
-2.09
0.5
1.91
1.06

> <PUBCHEM_SHAPE_SELFOVERLAP>
2019.773

> <PUBCHEM_SHAPE_VOLUME>
457.9

> <PUBCHEM_COORDINATE_TYPE>
2
5
10

$$$$
