5318015
  -OEChem-02172602253D

 38 40  0     0  0  0  0  0  0999 V2000
    3.1233    1.5863    0.4537 O   0  0  0  0  0  0  0  0  0  0  0  0
    2.7579    4.0040   -0.2797 O   0  0  0  0  0  0  0  0  0  0  0  0
   -0.9432   -1.1273    0.5574 N   0  0  0  0  0  0  0  0  0  0  0  0
   -0.1481   -0.0203    0.3761 C   0  0  0  0  0  0  0  0  0  0  0  0
   -0.9772    1.0188   -0.0470 C   0  0  0  0  0  0  0  0  0  0  0  0
    1.2313    0.1362    0.5541 C   0  0  0  0  0  0  0  0  0  0  0  0
   -2.3095    0.5011   -0.1166 C   0  0  0  0  0  0  0  0  0  0  0  0
   -2.2557   -0.8394    0.2661 C   0  0  0  0  0  0  0  0  0  0  0  0
    2.1035   -0.9883    1.0089 C   0  0  0  0  0  0  0  0  0  0  0  0
   -0.3995    2.2796   -0.3062 C   0  0  0  0  0  0  0  0  0  0  0  0
    1.7799    1.3943    0.2911 C   0  0  0  0  0  0  0  0  0  0  0  0
    0.9785    2.4515   -0.1329 C   0  0  0  0  0  0  0  0  0  0  0  0
   -3.5591    1.0517   -0.4708 C   0  0  0  0  0  0  0  0  0  0  0  0
   -3.3891   -1.6595    0.3129 C   0  0  0  0  0  0  0  0  0  0  0  0
    2.6581   -1.7995   -0.1352 C   0  0  0  0  0  0  0  0  0  0  0  0
   -4.7013    0.2442   -0.4291 C   0  0  0  0  0  0  0  0  0  0  0  0
   -4.6151   -1.0912   -0.0427 C   0  0  0  0  0  0  0  0  0  0  0  0
    2.4606   -3.1053   -0.3998 C   0  0  0  0  0  0  0  0  0  0  0  0
    1.5559    3.7611   -0.4055 C   0  0  0  0  0  0  0  0  0  0  0  0
    3.0471   -3.8531   -1.5633 C   0  0  0  0  0  0  0  0  0  0  0  0
    1.6017   -3.9448    0.5083 C   0  0  0  0  0  0  0  0  0  0  0  0
   -0.6128   -2.0313    0.8642 H   0  0  0  0  0  0  0  0  0  0  0  0
    2.9502   -0.6029    1.5914 H   0  0  0  0  0  0  0  0  0  0  0  0
    1.5446   -1.5875    1.7314 H   0  0  0  0  0  0  0  0  0  0  0  0
   -1.0272    3.1030   -0.6369 H   0  0  0  0  0  0  0  0  0  0  0  0
   -3.6426    2.0915   -0.7743 H   0  0  0  0  0  0  0  0  0  0  0  0
   -3.3225   -2.6997    0.6138 H   0  0  0  0  0  0  0  0  0  0  0  0
    3.3022   -1.2456   -0.8180 H   0  0  0  0  0  0  0  0  0  0  0  0
   -5.6655    0.6654   -0.7014 H   0  0  0  0  0  0  0  0  0  0  0  0
   -5.5142   -1.7014   -0.0169 H   0  0  0  0  0  0  0  0  0  0  0  0
    0.8614    4.5513   -0.7379 H   0  0  0  0  0  0  0  0  0  0  0  0
    3.4140    2.4127    0.0405 H   0  0  0  0  0  0  0  0  0  0  0  0
    3.6434   -3.1957   -2.2045 H   0  0  0  0  0  0  0  0  0  0  0  0
    3.6992   -4.6592   -1.2122 H   0  0  0  0  0  0  0  0  0  0  0  0
    2.2512   -4.2867   -2.1773 H   0  0  0  0  0  0  0  0  0  0  0  0
    1.5059   -3.5672    1.5269 H   0  0  0  0  0  0  0  0  0  0  0  0
    0.6014   -4.0584    0.0782 H   0  0  0  0  0  0  0  0  0  0  0  0
    2.0362   -4.9465    0.6094 H   0  0  0  0  0  0  0  0  0  0  0  0
  1 11  1  0  0  0  0
  1 32  1  0  0  0  0
  2 19  2  0  0  0  0
  3  4  1  0  0  0  0
  3  8  1  0  0  0  0
  3 22  1  0  0  0  0
  4  5  2  0  0  0  0
  4  6  1  0  0  0  0
  5  7  1  0  0  0  0
  5 10  1  0  0  0  0
  6  9  1  0  0  0  0
  6 11  2  0  0  0  0
  7  8  1  0  0  0  0
  7 13  2  0  0  0  0
  8 14  2  0  0  0  0
  9 15  1  0  0  0  0
  9 23  1  0  0  0  0
  9 24  1  0  0  0  0
 10 12  2  0  0  0  0
 10 25  1  0  0  0  0
 11 12  1  0  0  0  0
 12 19  1  0  0  0  0
 13 16  1  0  0  0  0
 13 26  1  0  0  0  0
 14 17  1  0  0  0  0
 14 27  1  0  0  0  0
 15 18  2  0  0  0  0
 15 28  1  0  0  0  0
 16 17  2  0  0  0  0
 16 29  1  0  0  0  0
 17 30  1  0  0  0  0
 18 20  1  0  0  0  0
 18 21  1  0  0  0  0
 19 31  1  0  0  0  0
 20 33  1  0  0  0  0
 20 34  1  0  0  0  0
 20 35  1  0  0  0  0
 21 36  1  0  0  0  0
 21 37  1  0  0  0  0
 21 38  1  0  0  0  0
M  END
> <PUBCHEM_COMPOUND_CID>
5318015

> <PUBCHEM_CONFORMER_RMSD>
0.6

> <PUBCHEM_CONFORMER_DIVERSEORDER>
1
10
11
14
19
16
13
18
3
17
15
8
12
9
4
7
20
2
5
6

> <PUBCHEM_MMFF94_PARTIAL_CHARGES>
28
1 -0.53
10 -0.15
11 0.08
12 0.09
13 -0.15
14 -0.15
15 -0.29
16 -0.15
17 -0.15
18 -0.28
19 0.42
2 -0.57
20 0.14
21 0.14
22 0.27
25 0.15
26 0.15
27 0.15
28 0.15
29 0.15
3 0.03
30 0.15
31 0.06
32 0.45
4 -0.15
6 -0.14
8 -0.15
9 0.28

> <PUBCHEM_EFFECTIVE_ROTOR_COUNT>
3

> <PUBCHEM_PHARMACOPHORE_FEATURES>
8
1 1 donor
1 2 acceptor
1 3 cation
1 3 donor
3 18 20 21 hydrophobe
5 3 4 5 7 8 rings
6 4 5 6 10 11 12 rings
6 7 8 13 14 16 17 rings

> <PUBCHEM_HEAVY_ATOM_COUNT>
21

> <PUBCHEM_ATOM_DEF_STEREO_COUNT>
0

> <PUBCHEM_ATOM_UDEF_STEREO_COUNT>
0

> <PUBCHEM_BOND_DEF_STEREO_COUNT>
0

> <PUBCHEM_BOND_UDEF_STEREO_COUNT>
0

> <PUBCHEM_ISOTOPIC_ATOM_COUNT>
0

> <PUBCHEM_COMPONENT_COUNT>
1

> <PUBCHEM_CACTVS_TAUTO_COUNT>
12

> <PUBCHEM_CONFORMER_ID>
0051257F00000001

> <PUBCHEM_MMFF94_ENERGY>
47.0034

> <PUBCHEM_FEATURE_SELFOVERLAP>
40.774

> <PUBCHEM_SHAPE_FINGERPRINT>
10411042 1 18121495756955432315
10616163 171 18048595112513868811
10906281 52 18261402139332215216
10967382 1 18408880746013984947
11578080 2 16517623924907718708
116883 192 18195522588949758101
12553582 1 18049165471038059987
12788726 201 17542233358671860538
13140716 1 18047460403423458544
13533116 47 18273492382566732651
138480 1 18337952290277795082
14022347 108 18045498608364633915
14508225 48 18123746448487531836
14790565 3 18120660389916454021
14866123 147 17333089720419085075
15042514 8 17545604452879685019
15442244 35 18339359661262312489
15475509 8 17695916531935452397
16752209 62 17039502497562584978
16945 1 18336831978171260721
17138139 8 16908879923736169295
17492 89 18411980282806068735
17818456 19 17559118675357354921
18681886 176 18121771996688912304
19591789 44 17977668941446481730
20645477 70 18335410322937926127
21524375 3 17755575297834049840
221490 88 18335706061374556419
2255824 54 18410572937306109498
22849341 161 18052282621247386145
22907989 373 17615695033542804118
23419403 2 16909424890428659826
23557571 272 17837760141810272354
23559900 14 18410566293076209121
2748010 2 18120353385674767208
3060560 45 18339643468400613332
3091708 16 9576005752610740600
314173 41 18338239249970427939
352729 6 17903921398042105995
38695281 34 18195245748638554668
394222 165 17753598337299159256
4280585 95 18266175029193744110
5104073 3 18044088180308518433
6025842 7 18266734856710670551
6138700 20 18335987554069349276
6443956 14 18337110072871137078
6669772 16 18055366983550027356
7364860 26 18337670913953625888
81228 2 18050001087005670168
8272917 22 18339081596357382535
9709674 26 18335419101846109979

> <PUBCHEM_SHAPE_MULTIPOLES>
415.45
7.05
5.17
0.89
6.42
2.18
0.12
-5.3
1.26
-6.47
1.08
-0.52
-0.46
0.95

> <PUBCHEM_SHAPE_SELFOVERLAP>
914.747

> <PUBCHEM_SHAPE_VOLUME>
225.8

> <PUBCHEM_COORDINATE_TYPE>
2
5
10

$$$$
