458010
  -OEChem-02172602263D

 35 38  0     1  0  0  0  0  0999 V2000
   -3.7943    1.1948    0.2916 O   0  0  0  0  0  0  0  0  0  0  0  0
   -0.8480   -0.3192    0.8672 O   0  0  0  0  0  0  0  0  0  0  0  0
    0.3807   -2.9259    0.4321 O   0  0  0  0  0  0  0  0  0  0  0  0
    0.7240    1.8999    0.3730 O   0  0  0  0  0  0  0  0  0  0  0  0
    0.9883    4.1742    0.3137 O   0  0  0  0  0  0  0  0  0  0  0  0
   -4.4403    0.0503   -0.2805 C   0  0  0  0  0  0  0  0  0  0  0  0
   -3.2069   -0.0755    0.5363 C   0  0  1  0  0  0  0  0  0  0  0  0
   -1.8591   -0.2310   -0.1351 C   0  0  0  0  0  0  0  0  0  0  0  0
   -5.7965   -0.2236    0.2524 C   0  0  0  0  0  0  0  0  0  0  0  0
   -4.3338   -0.0217   -1.7574 C   0  0  0  0  0  0  0  0  0  0  0  0
    0.4354   -0.4760    0.4402 C   0  0  0  0  0  0  0  0  0  0  0  0
    1.0057   -1.7304    0.2371 C   0  0  0  0  0  0  0  0  0  0  0  0
    1.2728    0.6113    0.1755 C   0  0  0  0  0  0  0  0  0  0  0  0
    2.3115   -1.9360   -0.1985 C   0  0  0  0  0  0  0  0  0  0  0  0
    2.5893    0.4682   -0.2625 C   0  0  0  0  0  0  0  0  0  0  0  0
    3.1248   -0.8150   -0.4557 C   0  0  0  0  0  0  0  0  0  0  0  0
    2.4769   -3.3448   -0.2687 C   0  0  0  0  0  0  0  0  0  0  0  0
    3.3789    1.6648   -0.5085 C   0  0  0  0  0  0  0  0  0  0  0  0
    1.2793   -3.8964    0.1228 C   0  0  0  0  0  0  0  0  0  0  0  0
    2.8497    2.8756   -0.3181 C   0  0  0  0  0  0  0  0  0  0  0  0
    1.4615    3.0562    0.1430 C   0  0  0  0  0  0  0  0  0  0  0  0
   -3.2743   -0.5150    1.5214 H   0  0  0  0  0  0  0  0  0  0  0  0
   -1.6393    0.6163   -0.7955 H   0  0  0  0  0  0  0  0  0  0  0  0
   -1.8573   -1.1553   -0.7248 H   0  0  0  0  0  0  0  0  0  0  0  0
   -5.8225   -0.1523    1.3452 H   0  0  0  0  0  0  0  0  0  0  0  0
   -6.1214   -1.2327   -0.0212 H   0  0  0  0  0  0  0  0  0  0  0  0
   -6.5262    0.4909   -0.1431 H   0  0  0  0  0  0  0  0  0  0  0  0
   -3.4769    0.5292   -2.1585 H   0  0  0  0  0  0  0  0  0  0  0  0
   -5.2237    0.4032   -2.2353 H   0  0  0  0  0  0  0  0  0  0  0  0
   -4.2489   -1.0640   -2.0824 H   0  0  0  0  0  0  0  0  0  0  0  0
    4.1479   -0.9499   -0.7963 H   0  0  0  0  0  0  0  0  0  0  0  0
    3.3608   -3.8900   -0.5680 H   0  0  0  0  0  0  0  0  0  0  0  0
    4.4031    1.5572   -0.8485 H   0  0  0  0  0  0  0  0  0  0  0  0
    0.9247   -4.9111    0.2295 H   0  0  0  0  0  0  0  0  0  0  0  0
    3.4357    3.7698   -0.5007 H   0  0  0  0  0  0  0  0  0  0  0  0
  1  6  1  0  0  0  0
  1  7  1  0  0  0  0
  2  8  1  0  0  0  0
  2 11  1  0  0  0  0
  3 12  1  0  0  0  0
  3 19  1  0  0  0  0
  4 13  1  0  0  0  0
  4 21  1  0  0  0  0
  5 21  2  0  0  0  0
  6  7  1  0  0  0  0
  6  9  1  0  0  0  0
  6 10  1  0  0  0  0
  7  8  1  0  0  0  0
  7 22  1  0  0  0  0
  8 23  1  0  0  0  0
  8 24  1  0  0  0  0
  9 25  1  0  0  0  0
  9 26  1  0  0  0  0
  9 27  1  0  0  0  0
 10 28  1  0  0  0  0
 10 29  1  0  0  0  0
 10 30  1  0  0  0  0
 11 12  1  0  0  0  0
 11 13  2  0  0  0  0
 12 14  2  0  0  0  0
 13 15  1  0  0  0  0
 14 16  1  0  0  0  0
 14 17  1  0  0  0  0
 15 16  2  0  0  0  0
 15 18  1  0  0  0  0
 16 31  1  0  0  0  0
 17 19  2  0  0  0  0
 17 32  1  0  0  0  0
 18 20  2  0  0  0  0
 18 33  1  0  0  0  0
 19 34  1  0  0  0  0
 20 21  1  0  0  0  0
 20 35  1  0  0  0  0
M  END
> <PUBCHEM_COMPOUND_CID>
458010

> <PUBCHEM_CONFORMER_RMSD>
0.6

> <PUBCHEM_CONFORMER_DIVERSEORDER>
1
17
19
12
13
15
2
14
16
9
7
3
5
18
10
6
4
8
11

> <PUBCHEM_MMFF94_PARTIAL_CHARGES>
26
1 -0.3
10 0.09
11 0.08
12 0.14
13 0.08
15 0.03
16 -0.15
17 -0.15
18 -0.18
19 -0.01
2 -0.36
20 -0.14
21 0.71
22 0.1
3 -0.28
31 0.15
32 0.15
33 0.15
34 0.15
35 0.15
4 -0.23
5 -0.57
6 -0.04
7 -0.05
8 0.38
9 0.09

> <PUBCHEM_EFFECTIVE_ROTOR_COUNT>
3.6

> <PUBCHEM_PHARMACOPHORE_FEATURES>
8
1 1 acceptor
1 2 acceptor
1 3 acceptor
1 5 acceptor
3 6 9 10 hydrophobe
5 3 12 14 17 19 rings
6 11 12 13 14 15 16 rings
6 4 13 15 18 20 21 rings

> <PUBCHEM_HEAVY_ATOM_COUNT>
21

> <PUBCHEM_ATOM_DEF_STEREO_COUNT>
1

> <PUBCHEM_ATOM_UDEF_STEREO_COUNT>
0

> <PUBCHEM_BOND_DEF_STEREO_COUNT>
0

> <PUBCHEM_BOND_UDEF_STEREO_COUNT>
0

> <PUBCHEM_ISOTOPIC_ATOM_COUNT>
0

> <PUBCHEM_COMPONENT_COUNT>
1

> <PUBCHEM_CACTVS_TAUTO_COUNT>
1

> <PUBCHEM_CONFORMER_ID>
0006FD1A00000001

> <PUBCHEM_MMFF94_ENERGY>
61.702

> <PUBCHEM_FEATURE_SELFOVERLAP>
40.73

> <PUBCHEM_SHAPE_FINGERPRINT>
10411042 1 18050007684076170322
10693767 8 18130514037505418182
10967382 1 18410580569811121650
1100329 8 18410291445793556162
116883 192 17620194234828322111
12107183 9 17838347276977550505
12553582 1 18050299063141665363
12730499 353 18335712692909355211
12769317 202 18337100246149825533
13009979 54 17630053654642679355
13134695 92 18337387119742028935
138480 1 18338518512985700976
13955234 65 18410576188928928819
14178000 15 18267020553144178912
15502722 9 18410294713846592667
16087824 20 17185038263320917057
17134986 127 18193276514607254660
17539 30 17330266174322066582
17818456 19 17271454496027915217
1813 80 17842568344227829599
20645477 70 18334858299091233643
21452121 199 18047456847306257146
21524375 3 18043805609555431680
22033318 11 17553799199769541577
221357 26 18191017916340453173
221490 88 18336555962325057595
22289505 5 18263355906991252829
2255824 54 18413105061087721423
22907989 373 17039232588964321636
23419403 2 17461690971495063486
23559900 14 18410568471057307475
23598291 2 17987533519463846161
238 59 18339078297674988203
25 1 18336549412251374500
2748010 2 18122650480862220642
3060560 45 18411136969717825190
350125 39 17905058301723622186
3886686 26 17693906981320881256
474 4 18339642351445515113
5281201 14 18262518087905133047
6025842 7 18411134753868440087
6443956 14 18264774255246916526
7164475 11 17689440386662240046
7364860 26 18410013221346939507
7471813 234 18199177399949654958
81228 2 17400345764036683088
8272917 22 18412269423913650855
84936 182 18272933868360032184

> <PUBCHEM_SHAPE_MULTIPOLES>
402.82
8.35
4.54
0.87
15.96
0.01
0.25
1.1
1.63
-6.04
-0.3
0.66
0
-0.05

> <PUBCHEM_SHAPE_SELFOVERLAP>
890.246

> <PUBCHEM_SHAPE_VOLUME>
219

> <PUBCHEM_COORDINATE_TYPE>
2
5
10

$$$$
