13577316
  -OEChem-02172602353D

 49 52  0     1  0  0  0  0  0999 V2000
    3.8145    0.0331    0.0499 O   0  0  0  0  0  0  0  0  0  0  0  0
    1.8062   -0.3915    1.1629 O   0  0  0  0  0  0  0  0  0  0  0  0
    3.1764    4.0874    0.2747 O   0  0  0  0  0  0  0  0  0  0  0  0
    0.9549    2.2665    0.5702 O   0  0  0  0  0  0  0  0  0  0  0  0
    5.1595    2.9895   -1.6112 O   0  0  0  0  0  0  0  0  0  0  0  0
   -0.7775   -0.4129    0.3445 O   0  0  0  0  0  0  0  0  0  0  0  0
    3.3059   -2.7176    1.1406 O   0  0  0  0  0  0  0  0  0  0  0  0
   -0.3929   -5.1614   -0.5433 O   0  0  0  0  0  0  0  0  0  0  0  0
   -4.0858   -1.4700   -0.8908 O   0  0  0  0  0  0  0  0  0  0  0  0
   -2.6005   -3.8205   -0.9467 O   0  0  0  0  0  0  0  0  0  0  0  0
   -4.4983    4.6660    0.2622 O   0  0  0  0  0  0  0  0  0  0  0  0
    3.1123    2.7959   -0.3317 C   0  0  2  0  0  0  0  0  0  0  0  0
    2.3266    1.8725    0.5991 C   0  0  2  0  0  0  0  0  0  0  0  0
    4.5285    2.2685   -0.5590 C   0  0  1  0  0  0  0  0  0  0  0  0
    2.4438    0.4093    0.1688 C   0  0  1  0  0  0  0  0  0  0  0  0
    4.4970    0.7950   -0.9398 C   0  0  0  0  0  0  0  0  0  0  0  0
    1.2465   -1.5617    0.7380 C   0  0  0  0  0  0  0  0  0  0  0  0
   -0.0820   -1.5937    0.3126 C   0  0  0  0  0  0  0  0  0  0  0  0
   -0.6464   -2.7916   -0.1194 C   0  0  0  0  0  0  0  0  0  0  0  0
    2.0065   -2.7313    0.7284 C   0  0  0  0  0  0  0  0  0  0  0  0
    0.1113   -3.9654   -0.1304 C   0  0  0  0  0  0  0  0  0  0  0  0
    1.4399   -3.9307    0.2950 C   0  0  0  0  0  0  0  0  0  0  0  0
   -2.0498   -2.7984   -0.5598 C   0  0  0  0  0  0  0  0  0  0  0  0
   -2.0975   -0.4109   -0.0783 C   0  0  0  0  0  0  0  0  0  0  0  0
   -2.7622   -1.4990   -0.5080 C   0  0  0  0  0  0  0  0  0  0  0  0
   -2.7272    0.9189    0.0106 C   0  0  0  0  0  0  0  0  0  0  0  0
   -3.3689    1.3113    1.1863 C   0  0  0  0  0  0  0  0  0  0  0  0
   -2.6819    1.7881   -1.0803 C   0  0  0  0  0  0  0  0  0  0  0  0
   -3.9641    2.5700    1.2709 C   0  0  0  0  0  0  0  0  0  0  0  0
   -3.2769    3.0469   -0.9957 C   0  0  0  0  0  0  0  0  0  0  0  0
   -3.9181    3.4377    0.1798 C   0  0  0  0  0  0  0  0  0  0  0  0
    2.5918    2.9254   -1.2888 H   0  0  0  0  0  0  0  0  0  0  0  0
    2.6721    1.9874    1.6344 H   0  0  0  0  0  0  0  0  0  0  0  0
    5.1263    2.4141    0.3483 H   0  0  0  0  0  0  0  0  0  0  0  0
    1.9388    0.2658   -0.7976 H   0  0  0  0  0  0  0  0  0  0  0  0
    4.0308    0.6365   -1.9206 H   0  0  0  0  0  0  0  0  0  0  0  0
    5.5194    0.4098   -1.0218 H   0  0  0  0  0  0  0  0  0  0  0  0
    2.2763    4.4539    0.2864 H   0  0  0  0  0  0  0  0  0  0  0  0
    0.8905    3.1465    0.9775 H   0  0  0  0  0  0  0  0  0  0  0  0
    4.6278    2.8745   -2.4171 H   0  0  0  0  0  0  0  0  0  0  0  0
    2.0439   -4.8351    0.2927 H   0  0  0  0  0  0  0  0  0  0  0  0
    3.5282   -1.8158    1.4296 H   0  0  0  0  0  0  0  0  0  0  0  0
   -3.4121    0.6460    2.0453 H   0  0  0  0  0  0  0  0  0  0  0  0
   -2.1846    1.4982   -2.0027 H   0  0  0  0  0  0  0  0  0  0  0  0
    0.2950   -5.8451   -0.4721 H   0  0  0  0  0  0  0  0  0  0  0  0
   -4.4332   -0.5676   -0.8077 H   0  0  0  0  0  0  0  0  0  0  0  0
   -4.4601    2.8626    2.1924 H   0  0  0  0  0  0  0  0  0  0  0  0
   -3.2372    3.7188   -1.8488 H   0  0  0  0  0  0  0  0  0  0  0  0
   -4.8944    4.7688    1.1446 H   0  0  0  0  0  0  0  0  0  0  0  0
  1 15  1  0  0  0  0
  1 16  1  0  0  0  0
  2 15  1  0  0  0  0
  2 17  1  0  0  0  0
  3 12  1  0  0  0  0
  3 38  1  0  0  0  0
  4 13  1  0  0  0  0
  4 39  1  0  0  0  0
  5 14  1  0  0  0  0
  5 40  1  0  0  0  0
  6 18  1  0  0  0  0
  6 24  1  0  0  0  0
  7 20  1  0  0  0  0
  7 42  1  0  0  0  0
  8 21  1  0  0  0  0
  8 45  1  0  0  0  0
  9 25  1  0  0  0  0
  9 46  1  0  0  0  0
 10 23  2  0  0  0  0
 11 31  1  0  0  0  0
 11 49  1  0  0  0  0
 12 13  1  0  0  0  0
 12 14  1  0  0  0  0
 12 32  1  0  0  0  0
 13 15  1  0  0  0  0
 13 33  1  0  0  0  0
 14 16  1  0  0  0  0
 14 34  1  0  0  0  0
 15 35  1  0  0  0  0
 16 36  1  0  0  0  0
 16 37  1  0  0  0  0
 17 18  1  0  0  0  0
 17 20  2  0  0  0  0
 18 19  2  0  0  0  0
 19 21  1  0  0  0  0
 19 23  1  0  0  0  0
 20 22  1  0  0  0  0
 21 22  2  0  0  0  0
 22 41  1  0  0  0  0
 23 25  1  0  0  0  0
 24 25  2  0  0  0  0
 24 26  1  0  0  0  0
 26 27  2  0  0  0  0
 26 28  1  0  0  0  0
 27 29  1  0  0  0  0
 27 43  1  0  0  0  0
 28 30  2  0  0  0  0
 28 44  1  0  0  0  0
 29 31  2  0  0  0  0
 29 47  1  0  0  0  0
 30 31  1  0  0  0  0
 30 48  1  0  0  0  0
M  END
> <PUBCHEM_COMPOUND_CID>
13577316

> <PUBCHEM_CONFORMER_RMSD>
0.8

> <PUBCHEM_CONFORMER_DIVERSEORDER>
1
31
34
20
36
37
29
16
17
13
24
39
28
21
26
32
27
33
22
35
14
38
19
15
8
7
2
11
18
30
6
23
5
12
25
4
10
9
3

> <PUBCHEM_MMFF94_PARTIAL_CHARGES>
43
1 -0.56
10 -0.57
11 -0.53
12 0.28
13 0.28
14 0.28
15 0.56
16 0.28
17 0.08
18 0.08
19 0.09
2 -0.36
20 0.08
21 0.08
22 -0.15
23 0.47
24 0.05
25 0.09
26 0.03
27 -0.15
28 -0.15
29 -0.15
3 -0.68
30 -0.15
31 0.08
38 0.4
39 0.4
4 -0.68
40 0.4
41 0.15
42 0.45
43 0.15
44 0.15
45 0.45
46 0.45
47 0.15
48 0.15
49 0.45
5 -0.68
6 -0.16
7 -0.53
8 -0.53
9 -0.53

> <PUBCHEM_EFFECTIVE_ROTOR_COUNT>
4.2

> <PUBCHEM_PHARMACOPHORE_FEATURES>
18
1 1 acceptor
1 10 acceptor
1 11 donor
1 2 acceptor
1 3 acceptor
1 3 donor
1 4 acceptor
1 4 donor
1 5 acceptor
1 5 donor
1 6 acceptor
1 7 donor
1 8 donor
1 9 donor
6 1 12 13 14 15 16 rings
6 17 18 19 20 21 22 rings
6 26 27 28 29 30 31 rings
6 6 18 19 23 24 25 rings

> <PUBCHEM_HEAVY_ATOM_COUNT>
31

> <PUBCHEM_ATOM_DEF_STEREO_COUNT>
4

> <PUBCHEM_ATOM_UDEF_STEREO_COUNT>
0

> <PUBCHEM_BOND_DEF_STEREO_COUNT>
0

> <PUBCHEM_BOND_UDEF_STEREO_COUNT>
0

> <PUBCHEM_ISOTOPIC_ATOM_COUNT>
0

> <PUBCHEM_COMPONENT_COUNT>
1

> <PUBCHEM_CACTVS_TAUTO_COUNT>
126

> <PUBCHEM_CONFORMER_ID>
00CF2C6400000001

> <PUBCHEM_MMFF94_ENERGY>
101.9478

> <PUBCHEM_FEATURE_SELFOVERLAP>
91.444

> <PUBCHEM_SHAPE_FINGERPRINT>
10006869 2 18263361550721321907
10439779 11 18339623626005173128
10498660 4 18047459316711927038
10871710 139 18265900331542797853
10937287 8 18410294700713933300
1100329 8 18266456504048804266
11059048 146 18411984654317657780
11211813 163 18263381325325519108
11273773 38 18122345679401102348
11578080 2 15507781851549883106
12173636 292 18339353196850904086
12422481 6 17825364325186152552
12788726 201 18048589619049932034
13140716 1 18195796384625736003
13583140 156 17316479493016780491
138480 1 17618223905733348857
14363568 33 17977687315306290797
14790565 3 18410864230456661488
14955137 171 17977117759677837946
15081414 286 17618503177476063751
15082195 135 18122323707034387549
151778 21 18265618684451462297
18785283 64 18049167670387830273
19311894 1 18343313565099712020
20642791 178 18337106757604836274
20739085 24 17262447197640636587
21033650 10 17972904706915563668
21857420 4 16822207092654844636
21860390 5 17838891538694544263
22113638 7 18051681153510061698
24180151 248 18198645391052534871
283562 15 18193553595816649307
350125 39 18411975837219187155
474 4 17766550262726020033
5048184 11 18410576167116735025
5252454 2 18410579469888777881
6371009 1 18265872783416910722
6700243 42 16973133167328552628

> <PUBCHEM_SHAPE_MULTIPOLES>
573.4
8.97
7.25
1.1
0.72
2.64
-0.02
-11.45
-0.91
-0.87
-1.13
0.06
-0.28
-2.31

> <PUBCHEM_SHAPE_SELFOVERLAP>
1267.65

> <PUBCHEM_SHAPE_VOLUME>
303.6

> <PUBCHEM_COORDINATE_TYPE>
2
5
10

$$$$
