102213709
  -OEChem-02172602523D

 55 57  0     1  0  0  0  0  0999 V2000
   -2.5918    0.2205    1.3399 P   0  0  1  0  0  0  0  0  0  0  0  0
    1.0690    0.0992   -0.2307 O   0  0  0  0  0  0  0  0  0  0  0  0
    0.4237    0.2571    1.9819 O   0  0  0  0  0  0  0  0  0  0  0  0
    3.3929    0.2494   -0.8812 C   0  0  2  0  0  0  0  0  0  0  0  0
    2.3907   -0.2536    0.1706 C   0  0  2  0  0  0  0  0  0  0  0  0
    4.8136   -0.2278   -0.5532 C   0  0  0  0  0  0  0  0  0  0  0  0
    3.8868   -2.2411    0.6704 C   0  0  2  0  0  0  0  0  0  0  0  0
    2.4663   -1.7726    0.3399 C   0  0  0  0  0  0  0  0  0  0  0  0
    4.8795   -1.7445   -0.3873 C   0  0  0  0  0  0  0  0  0  0  0  0
    3.3595    1.7754   -0.9997 C   0  0  0  0  0  0  0  0  0  0  0  0
    3.9397   -3.7633    0.7877 C   0  0  0  0  0  0  0  0  0  0  0  0
   -1.1584    0.6867    0.2154 C   0  0  1  0  0  0  0  0  0  0  0  0
    3.7646    2.4212    0.3218 C   0  0  0  0  0  0  0  0  0  0  0  0
    4.2706    2.2417   -2.1308 C   0  0  0  0  0  0  0  0  0  0  0  0
   -1.2471    2.2072    0.0136 C   0  0  0  0  0  0  0  0  0  0  0  0
    0.1837    0.3278    0.7842 C   0  0  0  0  0  0  0  0  0  0  0  0
   -1.8677    2.8117    1.2703 C   0  0  0  0  0  0  0  0  0  0  0  0
   -3.1142    1.9890    1.5821 C   0  0  0  0  0  0  0  0  0  0  0  0
   -3.8486   -0.4033    0.1748 C   0  0  0  0  0  0  0  0  0  0  0  0
   -3.9919    0.1886   -1.0801 C   0  0  0  0  0  0  0  0  0  0  0  0
   -4.6667   -1.4726    0.5390 C   0  0  0  0  0  0  0  0  0  0  0  0
   -4.9537   -0.2887   -1.9707 C   0  0  0  0  0  0  0  0  0  0  0  0
   -5.6283   -1.9500   -0.3514 C   0  0  0  0  0  0  0  0  0  0  0  0
   -5.7719   -1.3580   -1.6063 C   0  0  0  0  0  0  0  0  0  0  0  0
    3.0976   -0.1683   -1.8545 H   0  0  0  0  0  0  0  0  0  0  0  0
    2.6319    0.1834    1.1456 H   0  0  0  0  0  0  0  0  0  0  0  0
    5.1862    0.2101    0.3778 H   0  0  0  0  0  0  0  0  0  0  0  0
    5.5173    0.0463   -1.3456 H   0  0  0  0  0  0  0  0  0  0  0  0
    4.1743   -1.8184    1.6424 H   0  0  0  0  0  0  0  0  0  0  0  0
    1.7730   -2.0931    1.1277 H   0  0  0  0  0  0  0  0  0  0  0  0
    2.1088   -2.2587   -0.5782 H   0  0  0  0  0  0  0  0  0  0  0  0
    4.6685   -2.2228   -1.3525 H   0  0  0  0  0  0  0  0  0  0  0  0
    5.8995   -2.0341   -0.1071 H   0  0  0  0  0  0  0  0  0  0  0  0
    2.3392    2.0965   -1.2444 H   0  0  0  0  0  0  0  0  0  0  0  0
    3.6612   -4.2459   -0.1552 H   0  0  0  0  0  0  0  0  0  0  0  0
    3.2536   -4.1167    1.5646 H   0  0  0  0  0  0  0  0  0  0  0  0
    4.9481   -4.0971    1.0542 H   0  0  0  0  0  0  0  0  0  0  0  0
   -1.2529    0.1569   -0.7392 H   0  0  0  0  0  0  0  0  0  0  0  0
    3.6987    3.5119    0.2172 H   0  0  0  0  0  0  0  0  0  0  0  0
    4.7970    2.2156    0.6151 H   0  0  0  0  0  0  0  0  0  0  0  0
    3.0996    2.1680    1.1502 H   0  0  0  0  0  0  0  0  0  0  0  0
    4.0713    1.6922   -3.0568 H   0  0  0  0  0  0  0  0  0  0  0  0
    4.0934    3.3035   -2.3375 H   0  0  0  0  0  0  0  0  0  0  0  0
    5.3330    2.1436   -1.8875 H   0  0  0  0  0  0  0  0  0  0  0  0
   -1.8726    2.4492   -0.8526 H   0  0  0  0  0  0  0  0  0  0  0  0
   -0.2651    2.6549   -0.1795 H   0  0  0  0  0  0  0  0  0  0  0  0
   -1.1552    2.7643    2.1037 H   0  0  0  0  0  0  0  0  0  0  0  0
   -2.1223    3.8659    1.1192 H   0  0  0  0  0  0  0  0  0  0  0  0
   -3.4550    2.1595    2.6074 H   0  0  0  0  0  0  0  0  0  0  0  0
   -3.9271    2.2685    0.9044 H   0  0  0  0  0  0  0  0  0  0  0  0
   -3.3913    1.0288   -1.4056 H   0  0  0  0  0  0  0  0  0  0  0  0
   -4.5721   -1.9487    1.5121 H   0  0  0  0  0  0  0  0  0  0  0  0
   -5.0679    0.1737   -2.9468 H   0  0  0  0  0  0  0  0  0  0  0  0
   -6.2657   -2.7825   -0.0679 H   0  0  0  0  0  0  0  0  0  0  0  0
   -6.5212   -1.7292   -2.2994 H   0  0  0  0  0  0  0  0  0  0  0  0
  1 12  1  0  0  0  0
  1 18  1  0  0  0  0
  1 19  1  0  0  0  0
  2  5  1  0  0  0  0
  2 16  1  0  0  0  0
  3 16  2  0  0  0  0
  4  5  1  0  0  0  0
  4  6  1  0  0  0  0
  4 10  1  0  0  0  0
  4 25  1  0  0  0  0
  5  8  1  0  0  0  0
  5 26  1  0  0  0  0
  6  9  1  0  0  0  0
  6 27  1  0  0  0  0
  6 28  1  0  0  0  0
  7  8  1  0  0  0  0
  7  9  1  0  0  0  0
  7 11  1  0  0  0  0
  7 29  1  0  0  0  0
  8 30  1  0  0  0  0
  8 31  1  0  0  0  0
  9 32  1  0  0  0  0
  9 33  1  0  0  0  0
 10 13  1  0  0  0  0
 10 14  1  0  0  0  0
 10 34  1  0  0  0  0
 11 35  1  0  0  0  0
 11 36  1  0  0  0  0
 11 37  1  0  0  0  0
 12 15  1  0  0  0  0
 12 16  1  0  0  0  0
 12 38  1  0  0  0  0
 13 39  1  0  0  0  0
 13 40  1  0  0  0  0
 13 41  1  0  0  0  0
 14 42  1  0  0  0  0
 14 43  1  0  0  0  0
 14 44  1  0  0  0  0
 15 17  1  0  0  0  0
 15 45  1  0  0  0  0
 15 46  1  0  0  0  0
 17 18  1  0  0  0  0
 17 47  1  0  0  0  0
 17 48  1  0  0  0  0
 18 49  1  0  0  0  0
 18 50  1  0  0  0  0
 19 20  2  0  0  0  0
 19 21  1  0  0  0  0
 20 22  1  0  0  0  0
 20 51  1  0  0  0  0
 21 23  2  0  0  0  0
 21 52  1  0  0  0  0
 22 24  2  0  0  0  0
 22 53  1  0  0  0  0
 23 24  1  0  0  0  0
 23 54  1  0  0  0  0
 24 55  1  0  0  0  0
M  END
> <PUBCHEM_COMPOUND_CID>
102213709

> <PUBCHEM_CONFORMER_RMSD>
0.8

> <PUBCHEM_CONFORMER_DIVERSEORDER>
1
196
86
181
219
114
68
44
97
133
209
30
63
17
62
153
111
259
244
100
70
152
229
173
169
125
206
31
175
235
156
247
211
55
258
210
67
19
256
29
217
180
115
134
197
64
60
265
83
10
34
174
176
76
107
61
28
20
270
179
269
54
190
96
254
147
163
142
188
261
225
108
268
72
271
39
126
50
243
106
53
252
228
14
167
75
144
204
207
74
232
264
194
118
94
81
187
27
241
139
26
231
79
191
239
162
119
65
98
131
24
110
77
263
168
49
123
178
128
262
157
213
158
136
35
113
104
251
185
224
140
59
214
37
212
116
146
13
202
41
137
38
18
186
90
129
198
238
246
121
6
172
220
91
161
46
85
221
69
227
151
250
117
208
148
141
124
182
43
57
132
120
159
48
240
193
154
51
223
47
21
23
201
88
145
32
222
199
248
22
16
4
205
56
89
2
95
215
42
155
36
200
8
9
216
103
233
160
267
127
92
40
102
82
7
101
242
166
266
105
150
237
58
183
5
189
195
234
257
12
80
218
164
87
143
130
249
71
84
73
93
226
149
33
236
138
255
122
52
66
170
112
135
78
99
192
260
165
11
203
109
3
230
253
15
245
171
177
25
45
184

> <PUBCHEM_MMFF94_PARTIAL_CHARGES>
18
1 -0.35
12 0.23
16 0.66
18 0.17
19 0.01
2 -0.43
20 -0.15
21 -0.15
22 -0.15
23 -0.15
24 -0.15
3 -0.57
5 0.28
51 0.15
52 0.15
53 0.15
54 0.15
55 0.15

> <PUBCHEM_EFFECTIVE_ROTOR_COUNT>
7.2

> <PUBCHEM_PHARMACOPHORE_FEATURES>
5
1 3 acceptor
3 10 13 14 hydrophobe
5 1 12 15 17 18 rings
6 19 20 21 22 23 24 rings
6 4 5 6 7 8 9 rings

> <PUBCHEM_HEAVY_ATOM_COUNT>
24

> <PUBCHEM_ATOM_DEF_STEREO_COUNT>
4

> <PUBCHEM_ATOM_UDEF_STEREO_COUNT>
1

> <PUBCHEM_BOND_DEF_STEREO_COUNT>
0

> <PUBCHEM_BOND_UDEF_STEREO_COUNT>
0

> <PUBCHEM_ISOTOPIC_ATOM_COUNT>
0

> <PUBCHEM_COMPONENT_COUNT>
1

> <PUBCHEM_CACTVS_TAUTO_COUNT>
1

> <PUBCHEM_CONFORMER_ID>
0617A84D00000001

> <PUBCHEM_MMFF94_ENERGY>
54.7605

> <PUBCHEM_FEATURE_SELFOVERLAP>
25.373

> <PUBCHEM_SHAPE_FINGERPRINT>
10042902 136 16557904697037919181
10622 236 18267292141196754443
10928967 22 17703783752133044375
12553582 1 17632294614317326007
12616971 3 18339938021215273305
12633257 1 15841547522555137751
12788726 201 18059863869694737161
13533116 47 18410577296703306570
13540713 5 18339938003993563320
13675066 3 12751242493116786033
13911987 19 17899996102744897612
14251764 38 14780120829865393029
14848178 5 18269542875863636699
15250474 111 18412826854486541315
15537594 2 18201157779922768031
16989378 47 18127711348296869662
17492 89 18199754652498217166
17857418 61 18340202994838098154
1813 80 17561083661413174173
18222031 100 17489581320852346117
19377110 9 18272937128350635456
200 152 18410013221552810741
20626108 58 18195800783215429586
20645477 70 18113620088467407746
21033648 144 17025461025728269244
21033648 29 15719402749639142324
21703447 108 18342727533918403896
22393880 68 17167857565360417643
22950370 63 18272936059436378643
23559900 14 18259985989798632656
23598288 3 18130510717421772949
23622692 118 18341609266009845834
249057 3 18048032965598064453
25147074 1 18341907242172092033
2838139 119 14996547530603763479
3004659 81 18334568036458584311
312423 11 18341621386365376576
312425 54 13254805676597840831
314194 84 18341614879912143795
329604 57 18341896324575780263
34797466 226 17386004026944059983
351380 3 17846780754295176095
4015057 19 18186811270218937992
4098825 35 18114178610826297533
46194498 28 17459749427249543191
5104073 3 17989486290505693153
5283173 99 17749660827588713717
59682541 52 18187630411035535007
6058803 2 18267882587778490976
6669772 16 17910106155286121704
67856867 119 18410576171838821064
7970288 3 18201431537028286319

> <PUBCHEM_SHAPE_MULTIPOLES>
486.02
13.81
3.37
1.71
6.5
0.67
-0.34
7.02
-5.71
-3.29
0.7
1.01
-0.6
-3.03

> <PUBCHEM_SHAPE_SELFOVERLAP>
985.084

> <PUBCHEM_SHAPE_VOLUME>
284.7

> <PUBCHEM_COORDINATE_TYPE>
2
5
10

$$$$
