1715135
  -OEChem-02172602363D

 36 36  0     0  0  0  0  0  0999 V2000
    0.3714    2.7830    1.5741 O   0  0  0  0  0  0  0  0  0  0  0  0
   -2.7847    0.1377   -0.4834 C   0  0  0  0  0  0  0  0  0  0  0  0
   -2.4268    1.5916   -0.1562 C   0  0  0  0  0  0  0  0  0  0  0  0
   -4.0928   -0.3194    0.1670 C   0  0  0  0  0  0  0  0  0  0  0  0
   -1.1224    2.1012   -0.7876 C   0  0  0  0  0  0  0  0  0  0  0  0
   -4.4060   -1.7747   -0.1823 C   0  0  0  0  0  0  0  0  0  0  0  0
    0.1115    1.3613   -0.3343 C   0  0  0  0  0  0  0  0  0  0  0  0
   -5.7181   -2.2259    0.4390 C   0  0  0  0  0  0  0  0  0  0  0  0
    0.7166    0.3211   -0.9354 C   0  0  0  0  0  0  0  0  0  0  0  0
    1.9399   -0.3432   -0.4722 C   0  0  0  0  0  0  0  0  0  0  0  0
    0.7843    1.8416    0.9070 C   0  0  0  0  0  0  0  0  0  0  0  0
    3.1766    0.1289   -0.8920 C   0  0  0  0  0  0  0  0  0  0  0  0
    1.8457   -1.4351    0.3805 C   0  0  0  0  0  0  0  0  0  0  0  0
    4.3399   -0.5023   -0.4511 C   0  0  0  0  0  0  0  0  0  0  0  0
    3.0089   -2.0662    0.8215 C   0  0  0  0  0  0  0  0  0  0  0  0
    4.2560   -1.5997    0.4055 C   0  0  0  0  0  0  0  0  0  0  0  0
   -1.9806   -0.5257   -0.1451 H   0  0  0  0  0  0  0  0  0  0  0  0
   -2.8578    0.0228   -1.5718 H   0  0  0  0  0  0  0  0  0  0  0  0
   -2.3696    1.7104    0.9332 H   0  0  0  0  0  0  0  0  0  0  0  0
   -3.2451    2.2393   -0.4954 H   0  0  0  0  0  0  0  0  0  0  0  0
   -4.0199   -0.2087    1.2556 H   0  0  0  0  0  0  0  0  0  0  0  0
   -4.9128    0.3262   -0.1699 H   0  0  0  0  0  0  0  0  0  0  0  0
   -1.2064    2.0186   -1.8791 H   0  0  0  0  0  0  0  0  0  0  0  0
   -1.0125    3.1728   -0.5818 H   0  0  0  0  0  0  0  0  0  0  0  0
   -4.4653   -1.8923   -1.2706 H   0  0  0  0  0  0  0  0  0  0  0  0
   -3.5973   -2.4250    0.1709 H   0  0  0  0  0  0  0  0  0  0  0  0
   -5.6818   -2.1499    1.5304 H   0  0  0  0  0  0  0  0  0  0  0  0
   -5.9223   -3.2690    0.1777 H   0  0  0  0  0  0  0  0  0  0  0  0
   -6.5529   -1.6159    0.0793 H   0  0  0  0  0  0  0  0  0  0  0  0
    0.2959   -0.0828   -1.8532 H   0  0  0  0  0  0  0  0  0  0  0  0
    1.6912    1.3215    1.2427 H   0  0  0  0  0  0  0  0  0  0  0  0
    3.2565    0.9830   -1.5597 H   0  0  0  0  0  0  0  0  0  0  0  0
    0.8802   -1.8086    0.7119 H   0  0  0  0  0  0  0  0  0  0  0  0
    5.3109   -0.1391   -0.7749 H   0  0  0  0  0  0  0  0  0  0  0  0
    2.9438   -2.9206    1.4887 H   0  0  0  0  0  0  0  0  0  0  0  0
    5.1616   -2.0911    0.7489 H   0  0  0  0  0  0  0  0  0  0  0  0
  1 11  2  0  0  0  0
  2  3  1  0  0  0  0
  2  4  1  0  0  0  0
  2 17  1  0  0  0  0
  2 18  1  0  0  0  0
  3  5  1  0  0  0  0
  3 19  1  0  0  0  0
  3 20  1  0  0  0  0
  4  6  1  0  0  0  0
  4 21  1  0  0  0  0
  4 22  1  0  0  0  0
  5  7  1  0  0  0  0
  5 23  1  0  0  0  0
  5 24  1  0  0  0  0
  6  8  1  0  0  0  0
  6 25  1  0  0  0  0
  6 26  1  0  0  0  0
  7  9  2  0  0  0  0
  7 11  1  0  0  0  0
  8 27  1  0  0  0  0
  8 28  1  0  0  0  0
  8 29  1  0  0  0  0
  9 10  1  0  0  0  0
  9 30  1  0  0  0  0
 10 12  2  0  0  0  0
 10 13  1  0  0  0  0
 11 31  1  0  0  0  0
 12 14  1  0  0  0  0
 12 32  1  0  0  0  0
 13 15  2  0  0  0  0
 13 33  1  0  0  0  0
 14 16  2  0  0  0  0
 14 34  1  0  0  0  0
 15 16  1  0  0  0  0
 15 35  1  0  0  0  0
 16 36  1  0  0  0  0
M  END
> <PUBCHEM_COMPOUND_CID>
1715135

> <PUBCHEM_CONFORMER_RMSD>
0.8

> <PUBCHEM_CONFORMER_DIVERSEORDER>
1
49
54
27
46
17
15
58
36
35
24
37
31
57
29
38
56
11
44
4
50
43
6
25
55
30
47
62
40
2
48
12
60
32
22
13
20
3
39
51
52
19
18
28
59
7
10
14
45
33
8
21
5
26
41
9
42
34
61
23
16
53

> <PUBCHEM_MMFF94_PARTIAL_CHARGES>
18
1 -0.57
10 0.03
11 0.5
12 -0.15
13 -0.15
14 -0.15
15 -0.15
16 -0.15
30 0.15
31 0.06
32 0.15
33 0.15
34 0.15
35 0.15
36 0.15
5 0.14
7 -0.12
9 -0.18

> <PUBCHEM_EFFECTIVE_ROTOR_COUNT>
7

> <PUBCHEM_PHARMACOPHORE_FEATURES>
5
1 1 acceptor
1 8 hydrophobe
3 2 4 6 hydrophobe
3 3 5 7 hydrophobe
6 10 12 13 14 15 16 rings

> <PUBCHEM_HEAVY_ATOM_COUNT>
16

> <PUBCHEM_ATOM_DEF_STEREO_COUNT>
0

> <PUBCHEM_ATOM_UDEF_STEREO_COUNT>
0

> <PUBCHEM_BOND_DEF_STEREO_COUNT>
1

> <PUBCHEM_BOND_UDEF_STEREO_COUNT>
0

> <PUBCHEM_ISOTOPIC_ATOM_COUNT>
0

> <PUBCHEM_COMPONENT_COUNT>
1

> <PUBCHEM_CACTVS_TAUTO_COUNT>
1

> <PUBCHEM_CONFORMER_ID>
001A2BBF00000001

> <PUBCHEM_MMFF94_ENERGY>
27.8572

> <PUBCHEM_FEATURE_SELFOVERLAP>
25.384

> <PUBCHEM_SHAPE_FINGERPRINT>
10447042 23 18260821618282814855
11796584 16 18189047608176821903
11806522 49 18259705596889890934
12553582 1 18272080617440821063
12633257 1 18059872644830024465
12824470 246 18336265652410208193
13103583 49 18130241406129502907
13533116 47 18126569153520858323
13631057 29 18335985290062129142
13955234 65 17977392955966132785
14123255 352 10087641498817686951
14251731 5 18409448094320008687
14251732 17 9079117765217029184
14251764 30 17846510209588383934
14252887 29 17561369456799411222
14576447 43 18114185228833168174
14787075 74 18339924926276855228
15163728 17 9799123144607411154
15352361 1 18334296496163339375
15375462 189 18342172275902762542
18186145 218 13624112871291162988
20261772 1 18202561804320516839
20281475 54 18407762521424995589
20291156 8 18408602582821270751
20626108 58 17749936783347494736
21054139 6 18040722429324176750
23402539 116 15792301371588647692
238078 22 18341620261179020492
2871803 45 18040432196328517527
314194 84 18412262874089102655
316301 35 18264204893266577131
3421961 26 18266459983151304745
351380 3 18411141368134238047
4416823 128 18410011061542801165
46194498 28 16588868039714078343
5104073 3 18342734087748119960
5493415 88 18412537691591957437
5902787 121 18342173328191225588
633830 44 11167936953058413796
76465 3 18333447625361411123

> <PUBCHEM_SHAPE_MULTIPOLES>
323.4
10.05
2.86
1.05
9.02
0.47
-0.19
-9.75
-0.13
1.31
-0.92
-0.39
0.45
-0.01

> <PUBCHEM_SHAPE_SELFOVERLAP>
644.897

> <PUBCHEM_SHAPE_VOLUME>
191

> <PUBCHEM_COORDINATE_TYPE>
2
5
10

$$$$
