101737402
  -OEChem-02172602473D

 66 66  0     1  0  0  0  0  0999 V2000
   -1.2937    1.5337    1.7757 O   0  0  0  0  0  0  0  0  0  0  0  0
    0.4796    0.5853    0.4210 C   0  0  0  0  0  0  0  0  0  0  0  0
    1.1485   -0.5495    0.0730 C   0  0  0  0  0  0  0  0  0  0  0  0
   -1.0135    0.5688    0.7623 C   0  0  2  0  0  0  0  0  0  0  0  0
    1.1733    1.9385    0.5744 C   0  0  0  0  0  0  0  0  0  0  0  0
    2.5945   -0.5809   -0.2060 C   0  0  0  0  0  0  0  0  0  0  0  0
    0.4931   -1.9191   -0.0473 C   0  0  0  0  0  0  0  0  0  0  0  0
   -1.8696    0.8667   -0.4818 C   0  0  0  0  0  0  0  0  0  0  0  0
    3.3311   -1.8178    0.2739 C   0  0  0  0  0  0  0  0  0  0  0  0
    0.6857    3.0026   -0.4160 C   0  0  0  0  0  0  0  0  0  0  0  0
    0.6136   -2.4950   -1.4624 C   0  0  0  0  0  0  0  0  0  0  0  0
    3.1704    0.4249   -0.8963 C   0  0  0  0  0  0  0  0  0  0  0  0
    3.3367   -1.9628    1.7978 C   0  0  0  0  0  0  0  0  0  0  0  0
   -3.3146    0.4624   -0.2987 C   0  0  0  0  0  0  0  0  0  0  0  0
    4.6204    0.5582   -1.2739 C   0  0  0  0  0  0  0  0  0  0  0  0
    1.3911    4.3321   -0.1897 C   0  0  0  0  0  0  0  0  0  0  0  0
   -0.0209   -3.8743   -1.5540 C   0  0  0  0  0  0  0  0  0  0  0  0
    5.4403    1.3291   -0.2347 C   0  0  0  0  0  0  0  0  0  0  0  0
    4.0945   -3.2078    2.2335 C   0  0  0  0  0  0  0  0  0  0  0  0
   -4.2333    1.3737    0.2220 C   0  0  0  0  0  0  0  0  0  0  0  0
   -3.7297   -0.8212   -0.6534 C   0  0  0  0  0  0  0  0  0  0  0  0
   -5.5672    1.0014    0.3880 C   0  0  0  0  0  0  0  0  0  0  0  0
   -5.0636   -1.1935   -0.4873 C   0  0  0  0  0  0  0  0  0  0  0  0
   -5.9824   -0.2822    0.0336 C   0  0  0  0  0  0  0  0  0  0  0  0
    6.9243    1.4072   -0.5640 C   0  0  0  0  0  0  0  0  0  0  0  0
   -7.4087   -0.6806    0.2104 C   0  0  0  0  0  0  0  0  0  0  0  0
   -1.3077   -0.3853    1.2073 H   0  0  0  0  0  0  0  0  0  0  0  0
    0.9424    2.3043    1.5855 H   0  0  0  0  0  0  0  0  0  0  0  0
    2.2614    1.9121    0.6255 H   0  0  0  0  0  0  0  0  0  0  0  0
    0.8889   -2.6249    0.6891 H   0  0  0  0  0  0  0  0  0  0  0  0
   -0.5757   -1.8826    0.1743 H   0  0  0  0  0  0  0  0  0  0  0  0
   -1.4742    0.3370   -1.3586 H   0  0  0  0  0  0  0  0  0  0  0  0
   -1.8668    1.9284   -0.7416 H   0  0  0  0  0  0  0  0  0  0  0  0
    4.3789   -1.7817   -0.0431 H   0  0  0  0  0  0  0  0  0  0  0  0
    2.9549   -2.7363   -0.1835 H   0  0  0  0  0  0  0  0  0  0  0  0
    0.8312    2.6760   -1.4508 H   0  0  0  0  0  0  0  0  0  0  0  0
   -0.3783    3.2002   -0.2751 H   0  0  0  0  0  0  0  0  0  0  0  0
    0.0979   -1.8284   -2.1659 H   0  0  0  0  0  0  0  0  0  0  0  0
    1.6460   -2.5664   -1.8149 H   0  0  0  0  0  0  0  0  0  0  0  0
    2.5659    1.2084   -1.3413 H   0  0  0  0  0  0  0  0  0  0  0  0
    3.8160   -1.0835    2.2462 H   0  0  0  0  0  0  0  0  0  0  0  0
    2.3239   -2.0082    2.2100 H   0  0  0  0  0  0  0  0  0  0  0  0
    5.0728   -0.4211   -1.4608 H   0  0  0  0  0  0  0  0  0  0  0  0
    4.6753    1.0836   -2.2363 H   0  0  0  0  0  0  0  0  0  0  0  0
    1.2197    4.7013    0.8266 H   0  0  0  0  0  0  0  0  0  0  0  0
    1.0176    5.0841   -0.8919 H   0  0  0  0  0  0  0  0  0  0  0  0
    2.4705    4.2321   -0.3422 H   0  0  0  0  0  0  0  0  0  0  0  0
   -0.8432    1.2456    2.5883 H   0  0  0  0  0  0  0  0  0  0  0  0
    0.0505   -4.2572   -2.5769 H   0  0  0  0  0  0  0  0  0  0  0  0
    0.4851   -4.5822   -0.8899 H   0  0  0  0  0  0  0  0  0  0  0  0
   -1.0800   -3.8397   -1.2792 H   0  0  0  0  0  0  0  0  0  0  0  0
    5.0433    2.3473   -0.1383 H   0  0  0  0  0  0  0  0  0  0  0  0
    5.3283    0.8538    0.7478 H   0  0  0  0  0  0  0  0  0  0  0  0
    5.1333   -3.1769    1.8895 H   0  0  0  0  0  0  0  0  0  0  0  0
    4.1016   -3.2841    3.3253 H   0  0  0  0  0  0  0  0  0  0  0  0
    3.6252   -4.1120    1.8328 H   0  0  0  0  0  0  0  0  0  0  0  0
   -3.9225    2.3766    0.5026 H   0  0  0  0  0  0  0  0  0  0  0  0
   -3.0228   -1.5404   -1.0585 H   0  0  0  0  0  0  0  0  0  0  0  0
   -6.2731    1.7197    0.7963 H   0  0  0  0  0  0  0  0  0  0  0  0
   -5.3744   -2.1970   -0.7653 H   0  0  0  0  0  0  0  0  0  0  0  0
    7.3638    0.4064   -0.6216 H   0  0  0  0  0  0  0  0  0  0  0  0
    7.0840    1.9088   -1.5236 H   0  0  0  0  0  0  0  0  0  0  0  0
    7.4565    1.9700    0.2090 H   0  0  0  0  0  0  0  0  0  0  0  0
   -7.5563   -1.1177    1.2029 H   0  0  0  0  0  0  0  0  0  0  0  0
   -8.0761    0.1814    0.1038 H   0  0  0  0  0  0  0  0  0  0  0  0
   -7.7104   -1.4143   -0.5449 H   0  0  0  0  0  0  0  0  0  0  0  0
  1  4  1  0  0  0  0
  1 48  1  0  0  0  0
  2  3  2  0  0  0  0
  2  4  1  0  0  0  0
  2  5  1  0  0  0  0
  3  6  1  0  0  0  0
  3  7  1  0  0  0  0
  4  8  1  0  0  0  0
  4 27  1  0  0  0  0
  5 10  1  0  0  0  0
  5 28  1  0  0  0  0
  5 29  1  0  0  0  0
  6  9  1  0  0  0  0
  6 12  2  0  0  0  0
  7 11  1  0  0  0  0
  7 30  1  0  0  0  0
  7 31  1  0  0  0  0
  8 14  1  0  0  0  0
  8 32  1  0  0  0  0
  8 33  1  0  0  0  0
  9 13  1  0  0  0  0
  9 34  1  0  0  0  0
  9 35  1  0  0  0  0
 10 16  1  0  0  0  0
 10 36  1  0  0  0  0
 10 37  1  0  0  0  0
 11 17  1  0  0  0  0
 11 38  1  0  0  0  0
 11 39  1  0  0  0  0
 12 15  1  0  0  0  0
 12 40  1  0  0  0  0
 13 19  1  0  0  0  0
 13 41  1  0  0  0  0
 13 42  1  0  0  0  0
 14 20  2  0  0  0  0
 14 21  1  0  0  0  0
 15 18  1  0  0  0  0
 15 43  1  0  0  0  0
 15 44  1  0  0  0  0
 16 45  1  0  0  0  0
 16 46  1  0  0  0  0
 16 47  1  0  0  0  0
 17 49  1  0  0  0  0
 17 50  1  0  0  0  0
 17 51  1  0  0  0  0
 18 25  1  0  0  0  0
 18 52  1  0  0  0  0
 18 53  1  0  0  0  0
 19 54  1  0  0  0  0
 19 55  1  0  0  0  0
 19 56  1  0  0  0  0
 20 22  1  0  0  0  0
 20 57  1  0  0  0  0
 21 23  2  0  0  0  0
 21 58  1  0  0  0  0
 22 24  2  0  0  0  0
 22 59  1  0  0  0  0
 23 24  1  0  0  0  0
 23 60  1  0  0  0  0
 24 26  1  0  0  0  0
 25 61  1  0  0  0  0
 25 62  1  0  0  0  0
 25 63  1  0  0  0  0
 26 64  1  0  0  0  0
 26 65  1  0  0  0  0
 26 66  1  0  0  0  0
M  END
> <PUBCHEM_COMPOUND_CID>
101737402

> <PUBCHEM_CONFORMER_RMSD>
1

> <PUBCHEM_CONFORMER_DIVERSEORDER>
1
98
80
81
121
47
111
58
113
105
120
11
83
88
38
115
129
102
126
89
29
10
118
75
42
77
49
66
26
116
30
127
110
39
119
46
114
124
7
67
117
94
109
57
62
74
130
63
51
84
61
123
33
3
23
82
103
97
9
128
112
90
96
101
92
95
45
37
22
55
104
35
34
28
68
72
99
41
73
53
32
8
108
40
20
6
13
122
25
125
69
65
24
78
19
31
71
36
16
12
85
93
107
21
91
52
14
5
50
70
64
54
87
15
100
76
106
43
44
60
2
86
56
4
59
48
27
79
17
18

> <PUBCHEM_MMFF94_PARTIAL_CHARGES>
24
1 -0.68
12 -0.29
14 -0.14
15 0.14
2 -0.28
20 -0.15
21 -0.15
22 -0.15
23 -0.15
24 -0.14
26 0.14
3 -0.14
4 0.42
40 0.15
48 0.4
5 0.14
57 0.15
58 0.15
59 0.15
6 -0.14
60 0.15
7 0.14
8 0.14
9 0.14

> <PUBCHEM_EFFECTIVE_ROTOR_COUNT>
12

> <PUBCHEM_PHARMACOPHORE_FEATURES>
9
1 1 acceptor
1 1 donor
1 16 hydrophobe
1 17 hydrophobe
1 19 hydrophobe
1 25 hydrophobe
3 3 7 11 hydrophobe
3 6 9 13 hydrophobe
6 14 20 21 22 23 24 rings

> <PUBCHEM_HEAVY_ATOM_COUNT>
26

> <PUBCHEM_ATOM_DEF_STEREO_COUNT>
0

> <PUBCHEM_ATOM_UDEF_STEREO_COUNT>
1

> <PUBCHEM_BOND_DEF_STEREO_COUNT>
2

> <PUBCHEM_BOND_UDEF_STEREO_COUNT>
0

> <PUBCHEM_ISOTOPIC_ATOM_COUNT>
0

> <PUBCHEM_COMPONENT_COUNT>
1

> <PUBCHEM_CACTVS_TAUTO_COUNT>
3

> <PUBCHEM_CONFORMER_ID>
061063BA00000001

> <PUBCHEM_MMFF94_ENERGY>
53.4243

> <PUBCHEM_FEATURE_SELFOVERLAP>
45.712

> <PUBCHEM_SHAPE_FINGERPRINT>
10595046 47 18260548896559975913
10906281 52 18340503178929519315
1100329 8 18197498635168760180
12236239 1 18130795533545182821
12553582 1 18201148872065117805
12788726 201 17988931037102127913
13083527 12 18116707405612668058
13533116 47 17604430683024637786
14178342 30 17771060497413296395
14617045 38 18201727258548089551
14790565 3 18343590654530016396
14863182 85 18059294245046458870
1601671 61 18272090482806256087
17492 54 18337409222155508596
17492 89 18046339726497515010
18681886 176 18201155558833637144
19319366 153 18113333141950626170
1979834 28 17775283816587714367
21344244 181 17632033987054446382
21521721 280 18131358552112254896
229495 10 17750495357030201502
23558518 356 17762048144514246076
23559900 14 18342451578523209929
3004659 81 18336267829742570247
3178227 256 18339938115962925635
34934 24 18409167744920161166
3680242 22 18337392617759493667
4073 2 18115312327225491817
4325135 7 18333452058052484485
4340502 62 17313104168128447562
5104073 3 18413105031613638993
54040823 5 18334297552133957098
5486654 2 18202567306056980438
70251023 43 18192719934480912146

> <PUBCHEM_SHAPE_MULTIPOLES>
529.2
14.48
4.02
1.41
12.48
0.06
-0.42
0.67
-0.06
-4.01
0.16
-1.4
-1.18
-2.37

> <PUBCHEM_SHAPE_SELFOVERLAP>
1044.01

> <PUBCHEM_SHAPE_VOLUME>
317.3

> <PUBCHEM_COORDINATE_TYPE>
2
5
10

$$$$
