100605
  -OEChem-02172602573D

 29 33  0     0  0  0  0  0  0999 V2000
   -3.9739   -1.5568    0.0011 O   0  0  0  0  0  0  0  0  0  0  0  0
   -4.3517    0.8222    0.0004 O   0  0  0  0  0  0  0  0  0  0  0  0
    0.3435    3.0530    0.0009 O   0  0  0  0  0  0  0  0  0  0  0  0
    1.7694    1.3190   -0.0004 N   0  0  0  0  0  0  0  0  0  0  0  0
    1.9666   -0.0424   -0.0005 C   0  0  0  0  0  0  0  0  0  0  0  0
    0.9610   -1.0179   -0.0011 C   0  0  0  0  0  0  0  0  0  0  0  0
   -0.4330   -0.5267   -0.0014 C   0  0  0  0  0  0  0  0  0  0  0  0
   -0.6882    0.8889   -0.0015 C   0  0  0  0  0  0  0  0  0  0  0  0
    3.3294   -0.2893    0.0007 C   0  0  0  0  0  0  0  0  0  0  0  0
    0.4726    1.8382   -0.0009 C   0  0  0  0  0  0  0  0  0  0  0  0
   -1.5382   -1.3939   -0.0006 C   0  0  0  0  0  0  0  0  0  0  0  0
   -1.9865    1.4120   -0.0012 C   0  0  0  0  0  0  0  0  0  0  0  0
    2.9837    1.9546    0.0007 C   0  0  0  0  0  0  0  0  0  0  0  0
   -2.8101   -0.8488   -0.0002 C   0  0  0  0  0  0  0  0  0  0  0  0
   -3.0268    0.5094   -0.0007 C   0  0  0  0  0  0  0  0  0  0  0  0
    1.4176   -2.3436   -0.0009 C   0  0  0  0  0  0  0  0  0  0  0  0
    3.9668    0.9836    0.0016 C   0  0  0  0  0  0  0  0  0  0  0  0
    3.7566   -1.6280    0.0010 C   0  0  0  0  0  0  0  0  0  0  0  0
    2.7868   -2.6415    0.0002 C   0  0  0  0  0  0  0  0  0  0  0  0
   -4.9455   -0.4916    0.0026 C   0  0  0  0  0  0  0  0  0  0  0  0
   -1.4234   -2.4727   -0.0001 H   0  0  0  0  0  0  0  0  0  0  0  0
   -2.1793    2.4789   -0.0011 H   0  0  0  0  0  0  0  0  0  0  0  0
    3.0554    3.0338    0.0010 H   0  0  0  0  0  0  0  0  0  0  0  0
    0.7164   -3.1741   -0.0013 H   0  0  0  0  0  0  0  0  0  0  0  0
    5.0312    1.1750    0.0026 H   0  0  0  0  0  0  0  0  0  0  0  0
    4.8124   -1.8813    0.0020 H   0  0  0  0  0  0  0  0  0  0  0  0
    3.1056   -3.6812    0.0005 H   0  0  0  0  0  0  0  0  0  0  0  0
   -5.5783   -0.5924   -0.8867 H   0  0  0  0  0  0  0  0  0  0  0  0
   -5.5743   -0.5912    0.8949 H   0  0  0  0  0  0  0  0  0  0  0  0
  1 14  1  0  0  0  0
  1 20  1  0  0  0  0
  2 15  1  0  0  0  0
  2 20  1  0  0  0  0
  3 10  2  0  0  0  0
  4  5  1  0  0  0  0
  4 10  1  0  0  0  0
  4 13  1  0  0  0  0
  5  6  1  0  0  0  0
  5  9  2  0  0  0  0
  6  7  1  0  0  0  0
  6 16  2  0  0  0  0
  7  8  1  0  0  0  0
  7 11  2  0  0  0  0
  8 10  1  0  0  0  0
  8 12  2  0  0  0  0
  9 17  1  0  0  0  0
  9 18  1  0  0  0  0
 11 14  1  0  0  0  0
 11 21  1  0  0  0  0
 12 15  1  0  0  0  0
 12 22  1  0  0  0  0
 13 17  2  0  0  0  0
 13 23  1  0  0  0  0
 14 15  2  0  0  0  0
 16 19  1  0  0  0  0
 16 24  1  0  0  0  0
 17 25  1  0  0  0  0
 18 19  2  0  0  0  0
 18 26  1  0  0  0  0
 19 27  1  0  0  0  0
 20 28  1  0  0  0  0
 20 29  1  0  0  0  0
M  END
> <PUBCHEM_COMPOUND_CID>
100605

> <PUBCHEM_CONFORMER_RMSD>
0.6

> <PUBCHEM_CONFORMER_DIVERSEORDER>
1

> <PUBCHEM_MMFF94_PARTIAL_CHARGES>
24
1 -0.36
10 0.49
11 -0.15
12 -0.15
13 -0.3
14 0.08
15 0.08
16 -0.15
17 -0.15
18 -0.15
19 -0.15
2 -0.36
20 0.56
21 0.15
22 0.15
23 0.15
24 0.15
25 0.15
26 0.15
27 0.15
3 -0.57
4 0.29
5 -0.15
8 0.09

> <PUBCHEM_EFFECTIVE_ROTOR_COUNT>
0.6

> <PUBCHEM_PHARMACOPHORE_FEATURES>
8
1 1 acceptor
1 2 acceptor
1 3 acceptor
5 1 2 14 15 20 rings
5 4 5 9 13 17 rings
6 4 5 6 7 8 10 rings
6 5 6 9 16 18 19 rings
6 7 8 11 12 14 15 rings

> <PUBCHEM_HEAVY_ATOM_COUNT>
20

> <PUBCHEM_ATOM_DEF_STEREO_COUNT>
0

> <PUBCHEM_ATOM_UDEF_STEREO_COUNT>
0

> <PUBCHEM_BOND_DEF_STEREO_COUNT>
0

> <PUBCHEM_BOND_UDEF_STEREO_COUNT>
0

> <PUBCHEM_ISOTOPIC_ATOM_COUNT>
0

> <PUBCHEM_COMPONENT_COUNT>
1

> <PUBCHEM_CACTVS_TAUTO_COUNT>
1

> <PUBCHEM_CONFORMER_ID>
000188FD00000001

> <PUBCHEM_MMFF94_ENERGY>
53.9594

> <PUBCHEM_FEATURE_SELFOVERLAP>
40.996

> <PUBCHEM_SHAPE_FINGERPRINT>
10411042 1 18122626050761693510
10608611 8 18408600336089060245
10616163 171 18267588081622993231
10967382 1 18410574024106908614
10980938 120 18410575106343741186
11471102 20 18410289224530059911
11578080 2 17169818990987881374
116883 192 18196656185706981686
12107183 9 17837781023819420385
12236239 1 17846500340296433675
12553582 1 18339634547468982214
13140716 1 17907011034321733544
138480 1 18410855456218764576
14178342 30 17910935157130657522
14223421 5 18337950078469877500
14790565 3 18048887578291336620
14866123 147 17333093018542771595
15042514 8 17328862093916124442
15196674 1 18410855456112762855
15230672 131 13722867269826991563
15442244 35 18268150855292266721
15536298 74 18342175561626700650
16945 1 18266740362320485156
17492 89 18411700980603015247
1813 80 17240769471274335493
18186145 218 17748822995174911215
19591789 44 18411138034727776798
200 152 18130783478114912247
20645477 70 18412543193455567895
20905425 154 18341052900415330356
21267235 1 18339370681678953846
21421861 104 17969779670655236898
21452121 103 18342728646583595008
21501502 16 18339929203499597848
221490 88 18335990838748665939
23184049 29 18122343476240953094
2334 1 18410855503515678150
23463225 33 18410856542665668260
23559900 14 18339356362489857258
2748010 2 18410575123845357300
2871803 45 18407757023481598447
335352 9 18122626046112577725
33824 294 18410009966210141658
34934 24 18341325669134564246
350125 39 18410573964515618568
474 4 18041564749097263332
5104073 3 18410857650957213555
59755656 215 18410578379779032862
7364860 26 18413107251774087506
8272917 22 18411987965763491999
8809292 202 18260553315970683923
9709674 26 18408327708924782163

> <PUBCHEM_SHAPE_MULTIPOLES>
389
8.02
2.75
0.6
5.73
0.25
0
-1.55
-0.01
-1.84
0
-0.03
-0.02
0

> <PUBCHEM_SHAPE_SELFOVERLAP>
914.101

> <PUBCHEM_SHAPE_VOLUME>
196.2

> <PUBCHEM_COORDINATE_TYPE>
2
5
10

$$$$
