44258457
  -OEChem-02172602313D

 75 79  0     1  0  0  0  0  0999 V2000
    2.3056   -1.7447    0.4359 O   0  0  0  0  0  0  0  0  0  0  0  0
   -0.2449   -2.6942    0.0453 O   0  0  0  0  0  0  0  0  0  0  0  0
   -2.0105   -4.1034   -0.5885 O   0  0  0  0  0  0  0  0  0  0  0  0
    3.1282   -4.7154   -1.5631 O   0  0  0  0  0  0  0  0  0  0  0  0
    5.7273   -3.7521   -0.7484 O   0  0  0  0  0  0  0  0  0  0  0  0
    3.5360    0.1853    0.9556 O   0  0  0  0  0  0  0  0  0  0  0  0
    4.9232   -2.1799    1.4106 O   0  0  0  0  0  0  0  0  0  0  0  0
   -2.6420   -1.3505   -0.0472 O   0  0  0  0  0  0  0  0  0  0  0  0
   -3.6130   -3.6197    2.6371 O   0  0  0  0  0  0  0  0  0  0  0  0
   -4.7763   -3.1720   -0.7848 O   0  0  0  0  0  0  0  0  0  0  0  0
    4.8661    2.5753    0.5301 O   0  0  0  0  0  0  0  0  0  0  0  0
   -0.6375    2.2978    0.1467 O   0  0  0  0  0  0  0  0  0  0  0  0
    3.4759    4.8411   -0.0875 O   0  0  0  0  0  0  0  0  0  0  0  0
    1.1323    5.9066   -0.5189 O   0  0  0  0  0  0  0  0  0  0  0  0
   -6.9266    2.5077   -0.4219 O   0  0  0  0  0  0  0  0  0  0  0  0
    2.0922   -2.8251   -0.4786 C   0  0  1  0  0  0  0  0  0  0  0  0
    3.3258   -3.7363   -0.5465 C   0  0  2  0  0  0  0  0  0  0  0  0
    4.5787   -2.9172   -0.8672 C   0  0  1  0  0  0  0  0  0  0  0  0
    4.7012   -1.7192    0.0742 C   0  0  1  0  0  0  0  0  0  0  0  0
   -2.4191   -2.3043    0.9931 C   0  0  2  0  0  0  0  0  0  0  0  0
   -1.4301   -3.3559    0.4804 C   0  0  2  0  0  0  0  0  0  0  0  0
   -3.7563   -2.9396    1.3923 C   0  0  1  0  0  0  0  0  0  0  0  0
   -4.2684   -3.9155    0.3227 C   0  0  2  0  0  0  0  0  0  0  0  0
    3.4036   -0.9117    0.0567 C   0  0  1  0  0  0  0  0  0  0  0  0
    0.8576   -3.5874   -0.0082 C   0  0  0  0  0  0  0  0  0  0  0  0
   -3.1553   -4.8562   -0.1693 C   0  0  1  0  0  0  0  0  0  0  0  0
   -3.5955   -5.7111   -1.3529 C   0  0  0  0  0  0  0  0  0  0  0  0
    2.8380    1.3219    0.6456 C   0  0  0  0  0  0  0  0  0  0  0  0
    3.5063    2.5282    0.4307 C   0  0  0  0  0  0  0  0  0  0  0  0
    1.4476    1.2643    0.5458 C   0  0  0  0  0  0  0  0  0  0  0  0
    0.7266    2.4164    0.2309 C   0  0  0  0  0  0  0  0  0  0  0  0
    2.7877    3.6820    0.1153 C   0  0  0  0  0  0  0  0  0  0  0  0
    1.3957    3.6201    0.0165 C   0  0  0  0  0  0  0  0  0  0  0  0
    0.6109    4.8189   -0.3153 C   0  0  0  0  0  0  0  0  0  0  0  0
   -1.3812    3.4281   -0.1571 C   0  0  0  0  0  0  0  0  0  0  0  0
   -0.8532    4.6399   -0.3911 C   0  0  0  0  0  0  0  0  0  0  0  0
    5.6098    2.3221   -0.6593 C   0  0  0  0  0  0  0  0  0  0  0  0
   -2.8365    3.1875   -0.2277 C   0  0  0  0  0  0  0  0  0  0  0  0
   -3.7009    3.8887    0.6130 C   0  0  0  0  0  0  0  0  0  0  0  0
   -3.3468    2.2581   -1.1342 C   0  0  0  0  0  0  0  0  0  0  0  0
   -5.0754    3.6605    0.5476 C   0  0  0  0  0  0  0  0  0  0  0  0
   -4.7212    2.0297   -1.1997 C   0  0  0  0  0  0  0  0  0  0  0  0
   -5.5854    2.7309   -0.3588 C   0  0  0  0  0  0  0  0  0  0  0  0
    1.8676   -2.3976   -1.4653 H   0  0  0  0  0  0  0  0  0  0  0  0
    3.4662   -4.2774    0.3965 H   0  0  0  0  0  0  0  0  0  0  0  0
    4.5394   -2.5743   -1.9086 H   0  0  0  0  0  0  0  0  0  0  0  0
    5.5652   -1.0991   -0.1855 H   0  0  0  0  0  0  0  0  0  0  0  0
   -1.9692   -1.7673    1.8364 H   0  0  0  0  0  0  0  0  0  0  0  0
   -1.1825   -4.0391    1.3046 H   0  0  0  0  0  0  0  0  0  0  0  0
   -4.4957   -2.1429    1.5408 H   0  0  0  0  0  0  0  0  0  0  0  0
   -5.0933   -4.5200    0.7181 H   0  0  0  0  0  0  0  0  0  0  0  0
    3.2328   -0.5337   -0.9620 H   0  0  0  0  0  0  0  0  0  0  0  0
    1.0354   -3.9881    0.9974 H   0  0  0  0  0  0  0  0  0  0  0  0
    0.6327   -4.4152   -0.6899 H   0  0  0  0  0  0  0  0  0  0  0  0
   -2.8506   -5.5265    0.6447 H   0  0  0  0  0  0  0  0  0  0  0  0
   -3.8011   -5.0989   -2.2376 H   0  0  0  0  0  0  0  0  0  0  0  0
   -4.4873   -6.2967   -1.1104 H   0  0  0  0  0  0  0  0  0  0  0  0
   -2.7935   -6.4017   -1.6367 H   0  0  0  0  0  0  0  0  0  0  0  0
    2.9963   -4.2506   -2.4070 H   0  0  0  0  0  0  0  0  0  0  0  0
    6.5073   -3.2058   -0.9456 H   0  0  0  0  0  0  0  0  0  0  0  0
    4.0965   -2.5695    1.7417 H   0  0  0  0  0  0  0  0  0  0  0  0
   -3.2401   -0.6688    0.3038 H   0  0  0  0  0  0  0  0  0  0  0  0
   -4.4834   -3.9814    2.8759 H   0  0  0  0  0  0  0  0  0  0  0  0
   -5.5048   -2.6178   -0.4567 H   0  0  0  0  0  0  0  0  0  0  0  0
    0.9109    0.3378    0.7271 H   0  0  0  0  0  0  0  0  0  0  0  0
   -1.4547    5.5073   -0.6390 H   0  0  0  0  0  0  0  0  0  0  0  0
    2.8707    5.5677   -0.2997 H   0  0  0  0  0  0  0  0  0  0  0  0
    6.6732    2.3231   -0.4049 H   0  0  0  0  0  0  0  0  0  0  0  0
    5.4268    3.1080   -1.3988 H   0  0  0  0  0  0  0  0  0  0  0  0
    5.3528    1.3458   -1.0813 H   0  0  0  0  0  0  0  0  0  0  0  0
   -3.3220    4.6133    1.3298 H   0  0  0  0  0  0  0  0  0  0  0  0
   -2.6868    1.7036   -1.7970 H   0  0  0  0  0  0  0  0  0  0  0  0
   -5.7437    4.2088    1.2060 H   0  0  0  0  0  0  0  0  0  0  0  0
   -5.1059    1.3023   -1.9095 H   0  0  0  0  0  0  0  0  0  0  0  0
   -7.1022    1.8346   -1.1018 H   0  0  0  0  0  0  0  0  0  0  0  0
  1 16  1  0  0  0  0
  1 24  1  0  0  0  0
  2 21  1  0  0  0  0
  2 25  1  0  0  0  0
  3 21  1  0  0  0  0
  3 26  1  0  0  0  0
  4 17  1  0  0  0  0
  4 59  1  0  0  0  0
  5 18  1  0  0  0  0
  5 60  1  0  0  0  0
  6 24  1  0  0  0  0
  6 28  1  0  0  0  0
  7 19  1  0  0  0  0
  7 61  1  0  0  0  0
  8 20  1  0  0  0  0
  8 62  1  0  0  0  0
  9 22  1  0  0  0  0
  9 63  1  0  0  0  0
 10 23  1  0  0  0  0
 10 64  1  0  0  0  0
 11 29  1  0  0  0  0
 11 37  1  0  0  0  0
 12 31  1  0  0  0  0
 12 35  1  0  0  0  0
 13 32  1  0  0  0  0
 13 67  1  0  0  0  0
 14 34  2  0  0  0  0
 15 43  1  0  0  0  0
 15 75  1  0  0  0  0
 16 17  1  0  0  0  0
 16 25  1  0  0  0  0
 16 44  1  0  0  0  0
 17 18  1  0  0  0  0
 17 45  1  0  0  0  0
 18 19  1  0  0  0  0
 18 46  1  0  0  0  0
 19 24  1  0  0  0  0
 19 47  1  0  0  0  0
 20 21  1  0  0  0  0
 20 22  1  0  0  0  0
 20 48  1  0  0  0  0
 21 49  1  0  0  0  0
 22 23  1  0  0  0  0
 22 50  1  0  0  0  0
 23 26  1  0  0  0  0
 23 51  1  0  0  0  0
 24 52  1  0  0  0  0
 25 53  1  0  0  0  0
 25 54  1  0  0  0  0
 26 27  1  0  0  0  0
 26 55  1  0  0  0  0
 27 56  1  0  0  0  0
 27 57  1  0  0  0  0
 27 58  1  0  0  0  0
 28 29  2  0  0  0  0
 28 30  1  0  0  0  0
 29 32  1  0  0  0  0
 30 31  2  0  0  0  0
 30 65  1  0  0  0  0
 31 33  1  0  0  0  0
 32 33  2  0  0  0  0
 33 34  1  0  0  0  0
 34 36  1  0  0  0  0
 35 36  2  0  0  0  0
 35 38  1  0  0  0  0
 36 66  1  0  0  0  0
 37 68  1  0  0  0  0
 37 69  1  0  0  0  0
 37 70  1  0  0  0  0
 38 39  2  0  0  0  0
 38 40  1  0  0  0  0
 39 41  1  0  0  0  0
 39 71  1  0  0  0  0
 40 42  2  0  0  0  0
 40 72  1  0  0  0  0
 41 43  2  0  0  0  0
 41 73  1  0  0  0  0
 42 43  1  0  0  0  0
 42 74  1  0  0  0  0
M  END
> <PUBCHEM_COMPOUND_CID>
44258457

> <PUBCHEM_CONFORMER_RMSD>
1.4

> <PUBCHEM_CONFORMER_DIVERSEORDER>
1
20
34
67
100
110
8
30
43
123
32
42
17
135
7
54
66
94
72
159
148
60
16
127
38
106
101
68
129
65
104
161
47
152
156
83
131
137
40
29
31
79
115
143
108
134
120
112
146
84
147
13
19
121
53
71
50
102
41
114
4
160
111
49
6
140
82
138
28
55
11
107
130
44
64
153
57
149
80
95
3
48
126
14
89
85
133
46
12
151
113
21
24
52
139
119
154
91
23
162
88
58
22
63
27
2
90
158
145
33
70
81
86
157
59
37
103
45
36
61
142
5
10
109
74
116
155
125
9
15
150
97
77
93
122
128
76
118
25
39
18
99
75
105
35
69
132
98
56
117
96
144
124
78
51
62
26
92
141
73
136
87

> <PUBCHEM_MMFF94_PARTIAL_CHARGES>
56
1 -0.56
10 -0.68
11 -0.36
12 -0.16
13 -0.53
14 -0.57
15 -0.53
16 0.28
17 0.28
18 0.28
19 0.28
2 -0.56
20 0.28
21 0.56
22 0.28
23 0.28
24 0.56
25 0.28
26 0.28
28 0.08
29 0.08
3 -0.56
30 -0.15
31 0.08
32 0.08
33 0.09
34 0.47
35 0.05
36 -0.14
37 0.28
38 0.03
39 -0.15
4 -0.68
40 -0.15
41 -0.15
42 -0.15
43 0.08
5 -0.68
59 0.4
6 -0.36
60 0.4
61 0.4
62 0.4
63 0.4
64 0.4
65 0.15
66 0.15
67 0.45
7 -0.68
71 0.15
72 0.15
73 0.15
74 0.15
75 0.45
8 -0.68
9 -0.68

> <PUBCHEM_EFFECTIVE_ROTOR_COUNT>
9.4

> <PUBCHEM_PHARMACOPHORE_FEATURES>
26
1 1 acceptor
1 10 acceptor
1 10 donor
1 11 acceptor
1 12 acceptor
1 13 donor
1 14 acceptor
1 15 donor
1 2 acceptor
1 3 acceptor
1 4 acceptor
1 4 donor
1 5 acceptor
1 5 donor
1 6 acceptor
1 7 acceptor
1 7 donor
1 8 acceptor
1 8 donor
1 9 acceptor
1 9 donor
6 1 16 17 18 19 24 rings
6 12 31 33 34 35 36 rings
6 28 29 30 31 32 33 rings
6 3 20 21 22 23 26 rings
6 38 39 40 41 42 43 rings

> <PUBCHEM_HEAVY_ATOM_COUNT>
43

> <PUBCHEM_ATOM_DEF_STEREO_COUNT>
6

> <PUBCHEM_ATOM_UDEF_STEREO_COUNT>
4

> <PUBCHEM_BOND_DEF_STEREO_COUNT>
0

> <PUBCHEM_BOND_UDEF_STEREO_COUNT>
0

> <PUBCHEM_ISOTOPIC_ATOM_COUNT>
0

> <PUBCHEM_COMPONENT_COUNT>
1

> <PUBCHEM_CACTVS_TAUTO_COUNT>
24

> <PUBCHEM_CONFORMER_ID>
02A3549900000001

> <PUBCHEM_MMFF94_ENERGY>
150.8168

> <PUBCHEM_FEATURE_SELFOVERLAP>
132.133

> <PUBCHEM_SHAPE_FINGERPRINT>
10653451 467 18190196594408333897
10864689 126 17833550098812380101
1361 2 18266456503806419305
14725015 67 17761761880290271856
15320291 9 18337382859324258249
15320467 1 18194400232670477071
15483637 11 18337104687325130149
15538507 32 18194969543301665462
16112460 7 18270685251106862553
20764821 26 18409446951478932365
20775438 99 18125973071155429383
21133410 62 17754445756501159981
21716022 299 14829160096457874222
21779490 112 17620211840696477950
325973 47 18410571760627560189
3383291 50 18194395602785585123
3882209 13 17906410580677473330
463206 1 18266458711308605452
4756261 7 16457959781168307530
66674814 147 18124312710029920433
9961470 85 18340475712661712113

> <PUBCHEM_SHAPE_MULTIPOLES>
796.88
12.68
11.54
1.16
2.02
2.68
0.26
0.88
-1.07
4.8
-1.79
0.59
1.13
1.7

> <PUBCHEM_SHAPE_SELFOVERLAP>
1727.029

> <PUBCHEM_SHAPE_VOLUME>
429.7

> <PUBCHEM_COORDINATE_TYPE>
2
5
10

$$$$
