5318083
  -OEChem-02172602303D

 55 58  0     1  0  0  0  0  0999 V2000
   -3.2151   -0.3594   -0.6611 O   0  0  0  0  0  0  0  0  0  0  0  0
   -2.4690    0.5806    1.3399 O   0  0  0  0  0  0  0  0  0  0  0  0
   -6.3395   -2.2340    1.2340 O   0  0  0  0  0  0  0  0  0  0  0  0
   -5.5338   -3.0949   -1.4054 O   0  0  0  0  0  0  0  0  0  0  0  0
   -4.0040   -1.3136    2.7765 O   0  0  0  0  0  0  0  0  0  0  0  0
   -2.4979   -0.8161   -3.2751 O   0  0  0  0  0  0  0  0  0  0  0  0
    2.1332   -0.1085    0.4230 O   0  0  0  0  0  0  0  0  0  0  0  0
   -2.3406    3.1300    0.2735 O   0  0  0  0  0  0  0  0  0  0  0  0
    0.0100    4.0881   -0.7280 O   0  0  0  0  0  0  0  0  0  0  0  0
    2.5356    3.6125   -1.1868 O   0  0  0  0  0  0  0  0  0  0  0  0
    7.5312   -3.4005    0.3730 O   0  0  0  0  0  0  0  0  0  0  0  0
   -5.0063   -2.1184    0.7342 C   0  0  1  0  0  0  0  0  0  0  0  0
   -5.0852   -1.8973   -0.7766 C   0  0  1  0  0  0  0  0  0  0  0  0
   -4.3019   -0.9524    1.4280 C   0  0  2  0  0  0  0  0  0  0  0  0
   -3.7158   -1.5117   -1.3412 C   0  0  1  0  0  0  0  0  0  0  0  0
   -2.9908   -0.5978    0.7265 C   0  0  1  0  0  0  0  0  0  0  0  0
   -3.7928   -1.1719   -2.8263 C   0  0  0  0  0  0  0  0  0  0  0  0
   -1.2935    1.0598    0.8401 C   0  0  0  0  0  0  0  0  0  0  0  0
   -1.2240    2.3451    0.3006 C   0  0  0  0  0  0  0  0  0  0  0  0
   -0.1567    0.2515    0.8723 C   0  0  0  0  0  0  0  0  0  0  0  0
    1.0503    0.7315    0.3635 C   0  0  0  0  0  0  0  0  0  0  0  0
    1.1178    2.0156   -0.1747 C   0  0  0  0  0  0  0  0  0  0  0  0
   -0.0179    2.8281   -0.2087 C   0  0  0  0  0  0  0  0  0  0  0  0
    2.4034    2.4967   -0.7030 C   0  0  0  0  0  0  0  0  0  0  0  0
    3.3445    0.3386   -0.0825 C   0  0  0  0  0  0  0  0  0  0  0  0
    3.5372    1.5542   -0.6188 C   0  0  0  0  0  0  0  0  0  0  0  0
    4.4428   -0.6414    0.0367 C   0  0  0  0  0  0  0  0  0  0  0  0
   -2.5715    3.9658    1.4047 C   0  0  0  0  0  0  0  0  0  0  0  0
    5.7596   -0.2045    0.2002 C   0  0  0  0  0  0  0  0  0  0  0  0
    4.1691   -2.0106   -0.0133 C   0  0  0  0  0  0  0  0  0  0  0  0
    6.7963   -1.1309    0.3128 C   0  0  0  0  0  0  0  0  0  0  0  0
    5.2058   -2.9370    0.0995 C   0  0  0  0  0  0  0  0  0  0  0  0
    6.5195   -2.4972    0.2626 C   0  0  0  0  0  0  0  0  0  0  0  0
   -4.5050   -3.0659    0.9673 H   0  0  0  0  0  0  0  0  0  0  0  0
   -5.8249   -1.1166   -0.9924 H   0  0  0  0  0  0  0  0  0  0  0  0
   -4.9649   -0.0801    1.4725 H   0  0  0  0  0  0  0  0  0  0  0  0
   -2.9934   -2.3302   -1.2179 H   0  0  0  0  0  0  0  0  0  0  0  0
   -2.2751   -1.4208    0.8519 H   0  0  0  0  0  0  0  0  0  0  0  0
   -4.4552   -0.3192   -3.0085 H   0  0  0  0  0  0  0  0  0  0  0  0
   -4.1412   -2.0224   -3.4191 H   0  0  0  0  0  0  0  0  0  0  0  0
   -6.7631   -2.9731    0.7646 H   0  0  0  0  0  0  0  0  0  0  0  0
   -4.8798   -3.7917   -1.2254 H   0  0  0  0  0  0  0  0  0  0  0  0
   -3.4167   -2.0885    2.7587 H   0  0  0  0  0  0  0  0  0  0  0  0
   -2.1955   -0.0649   -2.7362 H   0  0  0  0  0  0  0  0  0  0  0  0
   -0.1929   -0.7438    1.3070 H   0  0  0  0  0  0  0  0  0  0  0  0
    4.4820    1.8967   -1.0242 H   0  0  0  0  0  0  0  0  0  0  0  0
    0.8978    4.3086   -1.0478 H   0  0  0  0  0  0  0  0  0  0  0  0
   -3.4910    4.5313    1.2306 H   0  0  0  0  0  0  0  0  0  0  0  0
   -1.7465    4.6727    1.5378 H   0  0  0  0  0  0  0  0  0  0  0  0
   -2.6985    3.3629    2.3095 H   0  0  0  0  0  0  0  0  0  0  0  0
    6.0139    0.8500    0.2663 H   0  0  0  0  0  0  0  0  0  0  0  0
    3.1559   -2.3813   -0.1480 H   0  0  0  0  0  0  0  0  0  0  0  0
    7.8150   -0.7758    0.4443 H   0  0  0  0  0  0  0  0  0  0  0  0
    4.9843   -4.0000    0.0579 H   0  0  0  0  0  0  0  0  0  0  0  0
    8.3712   -2.9216    0.4795 H   0  0  0  0  0  0  0  0  0  0  0  0
  1 15  1  0  0  0  0
  1 16  1  0  0  0  0
  2 16  1  0  0  0  0
  2 18  1  0  0  0  0
  3 12  1  0  0  0  0
  3 41  1  0  0  0  0
  4 13  1  0  0  0  0
  4 42  1  0  0  0  0
  5 14  1  0  0  0  0
  5 43  1  0  0  0  0
  6 17  1  0  0  0  0
  6 44  1  0  0  0  0
  7 21  1  0  0  0  0
  7 25  1  0  0  0  0
  8 19  1  0  0  0  0
  8 28  1  0  0  0  0
  9 23  1  0  0  0  0
  9 47  1  0  0  0  0
 10 24  2  0  0  0  0
 11 33  1  0  0  0  0
 11 55  1  0  0  0  0
 12 13  1  0  0  0  0
 12 14  1  0  0  0  0
 12 34  1  0  0  0  0
 13 15  1  0  0  0  0
 13 35  1  0  0  0  0
 14 16  1  0  0  0  0
 14 36  1  0  0  0  0
 15 17  1  0  0  0  0
 15 37  1  0  0  0  0
 16 38  1  0  0  0  0
 17 39  1  0  0  0  0
 17 40  1  0  0  0  0
 18 19  2  0  0  0  0
 18 20  1  0  0  0  0
 19 23  1  0  0  0  0
 20 21  2  0  0  0  0
 20 45  1  0  0  0  0
 21 22  1  0  0  0  0
 22 23  2  0  0  0  0
 22 24  1  0  0  0  0
 24 26  1  0  0  0  0
 25 26  2  0  0  0  0
 25 27  1  0  0  0  0
 26 46  1  0  0  0  0
 27 29  2  0  0  0  0
 27 30  1  0  0  0  0
 28 48  1  0  0  0  0
 28 49  1  0  0  0  0
 28 50  1  0  0  0  0
 29 31  1  0  0  0  0
 29 51  1  0  0  0  0
 30 32  2  0  0  0  0
 30 52  1  0  0  0  0
 31 33  2  0  0  0  0
 31 53  1  0  0  0  0
 32 33  1  0  0  0  0
 32 54  1  0  0  0  0
M  END
> <PUBCHEM_COMPOUND_CID>
5318083

> <PUBCHEM_CONFORMER_RMSD>
0.8

> <PUBCHEM_CONFORMER_DIVERSEORDER>
1
87
109
91
55
100
54
103
49
116
134
95
34
60
21
106
14
108
10
85
94
27
88
28
75
73
123
3
4
129
67
65
58
126
110
8
42
86
131
99
6
77
72
117
125
127
43
35
84
114
41
11
62
136
5
128
2
135
124
121
130
80
9
98
115
71
82
56
118
7
76
51
39
92
13
57
63
101
113
78
64
52
83
23
18
50
40
133
119
79
66
132
74
32
122
93
31
37
26
48
53
29
44
69
46
16
90
111
107
45
59
112
102
33
105
104
24
30
89
17
81
97
22
15
38
25
120
68
36
96
61
19
70
47
20
12

> <PUBCHEM_MMFF94_PARTIAL_CHARGES>
45
1 -0.56
10 -0.57
11 -0.53
12 0.28
13 0.28
14 0.28
15 0.28
16 0.56
17 0.28
18 0.08
19 0.08
2 -0.36
20 -0.15
21 0.08
22 0.09
23 0.08
24 0.47
25 0.05
26 -0.14
27 0.03
28 0.28
29 -0.15
3 -0.68
30 -0.15
31 -0.15
32 -0.15
33 0.08
4 -0.68
41 0.4
42 0.4
43 0.4
44 0.4
45 0.15
46 0.15
47 0.45
5 -0.68
51 0.15
52 0.15
53 0.15
54 0.15
55 0.45
6 -0.68
7 -0.16
8 -0.36
9 -0.53

> <PUBCHEM_EFFECTIVE_ROTOR_COUNT>
6.2

> <PUBCHEM_PHARMACOPHORE_FEATURES>
19
1 1 acceptor
1 10 acceptor
1 11 donor
1 2 acceptor
1 3 acceptor
1 3 donor
1 4 acceptor
1 4 donor
1 5 acceptor
1 5 donor
1 6 acceptor
1 6 donor
1 7 acceptor
1 8 acceptor
1 9 donor
6 1 12 13 14 15 16 rings
6 18 19 20 21 22 23 rings
6 27 29 30 31 32 33 rings
6 7 21 22 24 25 26 rings

> <PUBCHEM_HEAVY_ATOM_COUNT>
33

> <PUBCHEM_ATOM_DEF_STEREO_COUNT>
5

> <PUBCHEM_ATOM_UDEF_STEREO_COUNT>
0

> <PUBCHEM_BOND_DEF_STEREO_COUNT>
0

> <PUBCHEM_BOND_UDEF_STEREO_COUNT>
0

> <PUBCHEM_ISOTOPIC_ATOM_COUNT>
0

> <PUBCHEM_COMPONENT_COUNT>
1

> <PUBCHEM_CACTVS_TAUTO_COUNT>
21

> <PUBCHEM_CONFORMER_ID>
005125C300000001

> <PUBCHEM_MMFF94_ENERGY>
119.3486

> <PUBCHEM_FEATURE_SELFOVERLAP>
96.527

> <PUBCHEM_SHAPE_FINGERPRINT>
10411042 1 18334864904877457632
10622 236 18410853269715959334
10670039 82 14490459889911663390
11135926 11 18046073919656510668
11410812 94 16009018442598179326
11497681 19 18341335505865388142
12166972 35 17821733853317574590
12342043 65 17170981402765278363
12422481 6 17560534914478588951
12633257 1 16128376020964593323
13540713 5 18263949711916602680
13782708 43 17604427530608449747
13911987 19 17467650615811339444
14347332 77 18410580578021443024
14429380 30 18335143068640397074
14844126 61 18200872864376339065
15320294 125 17632580491678272367
15361156 5 17972341537886868830
17492 89 18408609175321848016
17686467 74 18409721852068605594
1813 80 18200886178838266661
19246450 95 18128837282911006099
19301679 30 18341063960141019787
19315092 285 17703227441950623336
19319366 153 17762906862874805596
208703 8 18409446985934155634
21703447 108 18336254726456883112
22393880 68 17313373561003315355
23536364 44 17968086504447707327
23559900 14 18260830427466298488
25025965 108 18194103150264162026
34797466 226 16226894522219432287
38570 142 8141811633404879178
46194498 28 17096648897056198524
484985 159 18341323406340979391
50009960 94 17753030719729617890
5080951 261 18123168144400846268
513202 73 18341050726882530999
5874358 3 15767785771937590055
5937810 71 9077960036189628578
6034566 193 8862946078404223745
6058803 2 18265639661336227036
6431902 208 18409446960470202866
6691757 9 17843688759778096041
70251023 43 18336826484770822497
7970288 3 18340484585874390799

> <PUBCHEM_SHAPE_MULTIPOLES>
614.56
16.13
4.82
1.83
15.07
3.33
-0.9
-21.29
1.65
0.04
-0.28
-3.79
-0.73
-2.1

> <PUBCHEM_SHAPE_SELFOVERLAP>
1343.756

> <PUBCHEM_SHAPE_VOLUME>
330.1

> <PUBCHEM_COORDINATE_TYPE>
2
5
10

$$$$
