5318059
  -OEChem-02172602413D

 54 57  0     1  0  0  0  0  0999 V2000
    3.0669    0.2314   -0.3643 O   0  0  0  0  0  0  0  0  0  0  0  0
    2.2106   -0.5876    1.6454 O   0  0  0  0  0  0  0  0  0  0  0  0
    6.1181    2.1820    1.5739 O   0  0  0  0  0  0  0  0  0  0  0  0
    3.7113    1.3493    3.0529 O   0  0  0  0  0  0  0  0  0  0  0  0
    5.3962    2.9435   -1.1367 O   0  0  0  0  0  0  0  0  0  0  0  0
    4.2709    1.7630   -3.2851 O   0  0  0  0  0  0  0  0  0  0  0  0
    3.5601   -0.3481   -2.8017 O   0  0  0  0  0  0  0  0  0  0  0  0
   -2.3319    0.1102    0.4727 O   0  0  0  0  0  0  0  0  0  0  0  0
    2.0928   -3.1897    0.7134 O   0  0  0  0  0  0  0  0  0  0  0  0
   -0.2226   -4.1705   -0.3466 O   0  0  0  0  0  0  0  0  0  0  0  0
   -2.7159   -3.6876   -0.9511 O   0  0  0  0  0  0  0  0  0  0  0  0
   -7.6693    3.4648   -0.0141 O   0  0  0  0  0  0  0  0  0  0  0  0
    4.8079    2.0493    1.0207 C   0  0  2  0  0  0  0  0  0  0  0  0
    4.0630    0.9225    1.7369 C   0  0  2  0  0  0  0  0  0  0  0  0
    4.9526    1.7606   -0.4738 C   0  0  1  0  0  0  0  0  0  0  0  0
    2.7794    0.5484    0.9953 C   0  0  1  0  0  0  0  0  0  0  0  0
    3.6182    1.3351   -1.0733 C   0  0  1  0  0  0  0  0  0  0  0  0
    3.7993    0.7995   -2.4566 C   0  0  0  0  0  0  0  0  0  0  0  0
    1.0527   -1.0781    1.1163 C   0  0  0  0  0  0  0  0  0  0  0  0
    0.9886   -2.3900    0.6445 C   0  0  0  0  0  0  0  0  0  0  0  0
   -0.0715   -0.2545    1.0503 C   0  0  0  0  0  0  0  0  0  0  0  0
   -1.2606   -0.7459    0.5107 C   0  0  0  0  0  0  0  0  0  0  0  0
   -1.3227   -2.0564    0.0402 C   0  0  0  0  0  0  0  0  0  0  0  0
   -0.1995   -2.8844    0.1047 C   0  0  0  0  0  0  0  0  0  0  0  0
   -2.5893   -2.5489   -0.5225 C   0  0  0  0  0  0  0  0  0  0  0  0
   -3.5247   -0.3480   -0.0653 C   0  0  0  0  0  0  0  0  0  0  0  0
   -3.7109   -1.5886   -0.5439 C   0  0  0  0  0  0  0  0  0  0  0  0
   -4.6120    0.6512   -0.0522 C   0  0  0  0  0  0  0  0  0  0  0  0
    2.9755   -3.1721   -0.4057 C   0  0  0  0  0  0  0  0  0  0  0  0
   -5.9417    0.2412    0.0712 C   0  0  0  0  0  0  0  0  0  0  0  0
   -4.3148    2.0120   -0.1629 C   0  0  0  0  0  0  0  0  0  0  0  0
   -6.9680    1.1859    0.0837 C   0  0  0  0  0  0  0  0  0  0  0  0
   -5.3411    2.9567   -0.1503 C   0  0  0  0  0  0  0  0  0  0  0  0
   -6.6678    2.5436   -0.0268 C   0  0  0  0  0  0  0  0  0  0  0  0
    4.3043    3.0109    1.1811 H   0  0  0  0  0  0  0  0  0  0  0  0
    4.7096    0.0425    1.8443 H   0  0  0  0  0  0  0  0  0  0  0  0
    5.7200    0.9929   -0.6322 H   0  0  0  0  0  0  0  0  0  0  0  0
    2.0742    1.3886    1.0442 H   0  0  0  0  0  0  0  0  0  0  0  0
    2.8848    2.1499   -1.1163 H   0  0  0  0  0  0  0  0  0  0  0  0
    6.0204    2.4506    2.5028 H   0  0  0  0  0  0  0  0  0  0  0  0
    4.5360    1.4961    3.5457 H   0  0  0  0  0  0  0  0  0  0  0  0
    4.7218    3.6323   -1.0083 H   0  0  0  0  0  0  0  0  0  0  0  0
   -0.0402    0.7626    1.4316 H   0  0  0  0  0  0  0  0  0  0  0  0
    4.3985    1.4303   -4.1991 H   0  0  0  0  0  0  0  0  0  0  0  0
   -4.6407   -1.9404   -0.9751 H   0  0  0  0  0  0  0  0  0  0  0  0
   -1.0955   -4.3942   -0.7030 H   0  0  0  0  0  0  0  0  0  0  0  0
    3.7167   -2.3789   -0.2767 H   0  0  0  0  0  0  0  0  0  0  0  0
    3.4991   -4.1313   -0.4429 H   0  0  0  0  0  0  0  0  0  0  0  0
    2.4374   -3.0319   -1.3493 H   0  0  0  0  0  0  0  0  0  0  0  0
   -6.2154   -0.8046    0.1819 H   0  0  0  0  0  0  0  0  0  0  0  0
   -3.2907    2.3615   -0.2687 H   0  0  0  0  0  0  0  0  0  0  0  0
   -7.9972    0.8519    0.1852 H   0  0  0  0  0  0  0  0  0  0  0  0
   -5.1013    4.0128   -0.2386 H   0  0  0  0  0  0  0  0  0  0  0  0
   -8.5208    3.0035    0.0776 H   0  0  0  0  0  0  0  0  0  0  0  0
  1 16  1  0  0  0  0
  1 17  1  0  0  0  0
  2 16  1  0  0  0  0
  2 19  1  0  0  0  0
  3 13  1  0  0  0  0
  3 40  1  0  0  0  0
  4 14  1  0  0  0  0
  4 41  1  0  0  0  0
  5 15  1  0  0  0  0
  5 42  1  0  0  0  0
  6 18  1  0  0  0  0
  6 44  1  0  0  0  0
  7 18  2  0  0  0  0
  8 22  1  0  0  0  0
  8 26  1  0  0  0  0
  9 20  1  0  0  0  0
  9 29  1  0  0  0  0
 10 24  1  0  0  0  0
 10 46  1  0  0  0  0
 11 25  2  0  0  0  0
 12 34  1  0  0  0  0
 12 54  1  0  0  0  0
 13 14  1  0  0  0  0
 13 15  1  0  0  0  0
 13 35  1  0  0  0  0
 14 16  1  0  0  0  0
 14 36  1  0  0  0  0
 15 17  1  0  0  0  0
 15 37  1  0  0  0  0
 16 38  1  0  0  0  0
 17 18  1  0  0  0  0
 17 39  1  0  0  0  0
 19 20  2  0  0  0  0
 19 21  1  0  0  0  0
 20 24  1  0  0  0  0
 21 22  2  0  0  0  0
 21 43  1  0  0  0  0
 22 23  1  0  0  0  0
 23 24  2  0  0  0  0
 23 25  1  0  0  0  0
 25 27  1  0  0  0  0
 26 27  2  0  0  0  0
 26 28  1  0  0  0  0
 27 45  1  0  0  0  0
 28 30  2  0  0  0  0
 28 31  1  0  0  0  0
 29 47  1  0  0  0  0
 29 48  1  0  0  0  0
 29 49  1  0  0  0  0
 30 32  1  0  0  0  0
 30 50  1  0  0  0  0
 31 33  2  0  0  0  0
 31 51  1  0  0  0  0
 32 34  2  0  0  0  0
 32 52  1  0  0  0  0
 33 34  1  0  0  0  0
 33 53  1  0  0  0  0
M  END
> <PUBCHEM_COMPOUND_CID>
5318059

> <PUBCHEM_CONFORMER_RMSD>
1

> <PUBCHEM_CONFORMER_DIVERSEORDER>
1
43
25
10
20
37
39
30
46
19
45
40
41
9
38
24
47
28
33
17
23
36
11
2
5
15
3
4
6
44
18
31
22
34
42
26
29
21
27
13
35
32
8
14
16
7
12

> <PUBCHEM_MMFF94_PARTIAL_CHARGES>
46
1 -0.56
10 -0.53
11 -0.57
12 -0.53
13 0.28
14 0.28
15 0.28
16 0.56
17 0.34
18 0.66
19 0.08
2 -0.36
20 0.08
21 -0.15
22 0.08
23 0.09
24 0.08
25 0.47
26 0.05
27 -0.14
28 0.03
29 0.28
3 -0.68
30 -0.15
31 -0.15
32 -0.15
33 -0.15
34 0.08
4 -0.68
40 0.4
41 0.4
42 0.4
43 0.15
44 0.5
45 0.15
46 0.45
5 -0.68
50 0.15
51 0.15
52 0.15
53 0.15
54 0.45
6 -0.65
7 -0.57
8 -0.16
9 -0.36

> <PUBCHEM_EFFECTIVE_ROTOR_COUNT>
6.2

> <PUBCHEM_PHARMACOPHORE_FEATURES>
20
1 1 acceptor
1 10 donor
1 11 acceptor
1 12 donor
1 2 acceptor
1 3 acceptor
1 3 donor
1 4 acceptor
1 4 donor
1 5 acceptor
1 5 donor
1 6 acceptor
1 7 acceptor
1 8 acceptor
1 9 acceptor
3 6 7 18 anion
6 1 13 14 15 16 17 rings
6 19 20 21 22 23 24 rings
6 28 30 31 32 33 34 rings
6 8 22 23 25 26 27 rings

> <PUBCHEM_HEAVY_ATOM_COUNT>
34

> <PUBCHEM_ATOM_DEF_STEREO_COUNT>
5

> <PUBCHEM_ATOM_UDEF_STEREO_COUNT>
0

> <PUBCHEM_BOND_DEF_STEREO_COUNT>
0

> <PUBCHEM_BOND_UDEF_STEREO_COUNT>
0

> <PUBCHEM_ISOTOPIC_ATOM_COUNT>
0

> <PUBCHEM_COMPONENT_COUNT>
1

> <PUBCHEM_CACTVS_TAUTO_COUNT>
21

> <PUBCHEM_CONFORMER_ID>
005125AB00000001

> <PUBCHEM_MMFF94_ENERGY>
117.6884

> <PUBCHEM_FEATURE_SELFOVERLAP>
101.675

> <PUBCHEM_SHAPE_FINGERPRINT>
10050765 1 18412818088769909955
10615611 76 17676770988656982868
10673678 19 18340491062974677843
10721379 63 18199754643987442778
11720765 8 17773323327399628998
11966995 178 17988362569292786769
1200032 147 17168730608058050286
12342043 65 12757691090354614192
12422481 6 17241033327999824925
12661589 4 10951462922228977109
12788726 201 17318180784844186346
13540713 5 18268121259143167891
13617811 41 18122340457138147927
13627167 48 17774173301364398865
13782708 43 11167643384276899665
14294032 229 18334565867753177885
14790565 3 18337950203113697553
14840074 17 17603595136034448205
14950920 106 15213013852004788393
15163728 17 18335427884505532647
15439362 3 18409731764447455562
15513586 35 17098346590718705885
17134984 74 13973669650922549213
19304671 126 17489870427495922937
20691028 202 18264770966141387381
21033650 10 18191882329905903490
22149856 69 18338529530716500337
23559900 14 17986662684727862579
23569914 152 16985203244626134733
3388396 114 17042602592241053413
392239 28 15574710326733125089
4066623 53 17916312641254276680
44249763 50 17844799468147650473
50009960 94 10014428227844308037
513532 50 18130788919500950996
5219985 13 18410852149383694415
5951187 136 18340492261408268908
59682541 52 15769775724078364113
6609424 69 17024304111455913799
7288768 16 18113332025296111531
7808743 9 18411129273384396147
9849439 229 18409162221185867899

> <PUBCHEM_SHAPE_MULTIPOLES>
629.27
16.5
4.59
1.96
17.78
2.68
-0.8
-20.79
-1.19
1.37
-0.62
-4.88
-1.05
-0.54

> <PUBCHEM_SHAPE_SELFOVERLAP>
1384.41

> <PUBCHEM_SHAPE_VOLUME>
335.3

> <PUBCHEM_COORDINATE_TYPE>
2
5
10

$$$$
