40510009
  -OEChem-02172602293D

 27 26  0     1  0  0  0  0  0999 V2000
    2.1172    0.1344    1.4274 O   0  0  0  0  0  0  0  0  0  0  0  0
    2.0132    0.3047    0.0103 C   0  0  1  0  0  0  0  0  0  0  0  0
    0.8024    1.2250   -0.2677 C   0  0  0  0  0  0  0  0  0  0  0  0
    3.2986    1.0006   -0.4583 C   0  0  0  0  0  0  0  0  0  0  0  0
    1.8750   -1.0238   -0.7064 C   0  0  0  0  0  0  0  0  0  0  0  0
   -0.5041    0.6873    0.2616 C   0  0  0  0  0  0  0  0  0  0  0  0
   -1.5883    0.4903   -0.5057 C   0  0  0  0  0  0  0  0  0  0  0  0
   -2.8776   -0.0237   -0.0626 C   0  0  0  0  0  0  0  0  0  0  0  0
    1.8177   -2.2351   -0.1391 C   0  0  0  0  0  0  0  0  0  0  0  0
   -3.0720   -0.3884    1.3832 C   0  0  0  0  0  0  0  0  0  0  0  0
   -3.8821   -0.1712   -0.9425 C   0  0  0  0  0  0  0  0  0  0  0  0
    0.7276    1.4311   -1.3436 H   0  0  0  0  0  0  0  0  0  0  0  0
    0.9628    2.1927    0.2266 H   0  0  0  0  0  0  0  0  0  0  0  0
    3.4382    1.9578    0.0575 H   0  0  0  0  0  0  0  0  0  0  0  0
    3.2909    1.1902   -1.5373 H   0  0  0  0  0  0  0  0  0  0  0  0
    4.1801    0.3927   -0.2212 H   0  0  0  0  0  0  0  0  0  0  0  0
    1.8123   -0.9784   -1.7926 H   0  0  0  0  0  0  0  0  0  0  0  0
   -0.5387    0.4780    1.3272 H   0  0  0  0  0  0  0  0  0  0  0  0
    2.2188    1.0129    1.8321 H   0  0  0  0  0  0  0  0  0  0  0  0
   -1.5110    0.7259   -1.5663 H   0  0  0  0  0  0  0  0  0  0  0  0
    1.7150   -3.1220   -0.7552 H   0  0  0  0  0  0  0  0  0  0  0  0
    1.8694   -2.3714    0.9347 H   0  0  0  0  0  0  0  0  0  0  0  0
   -2.3709   -1.1749    1.6830 H   0  0  0  0  0  0  0  0  0  0  0  0
   -4.0825   -0.7647    1.5791 H   0  0  0  0  0  0  0  0  0  0  0  0
   -2.9218    0.4845    2.0276 H   0  0  0  0  0  0  0  0  0  0  0  0
   -4.8503   -0.5531   -0.6341 H   0  0  0  0  0  0  0  0  0  0  0  0
   -3.7695    0.0833   -1.9920 H   0  0  0  0  0  0  0  0  0  0  0  0
  1  2  1  0  0  0  0
  1 19  1  0  0  0  0
  2  3  1  0  0  0  0
  2  4  1  0  0  0  0
  2  5  1  0  0  0  0
  3  6  1  0  0  0  0
  3 12  1  0  0  0  0
  3 13  1  0  0  0  0
  4 14  1  0  0  0  0
  4 15  1  0  0  0  0
  4 16  1  0  0  0  0
  5  9  2  0  0  0  0
  5 17  1  0  0  0  0
  6  7  2  0  0  0  0
  6 18  1  0  0  0  0
  7  8  1  0  0  0  0
  7 20  1  0  0  0  0
  8 10  1  0  0  0  0
  8 11  2  0  0  0  0
  9 21  1  0  0  0  0
  9 22  1  0  0  0  0
 10 23  1  0  0  0  0
 10 24  1  0  0  0  0
 10 25  1  0  0  0  0
 11 26  1  0  0  0  0
 11 27  1  0  0  0  0
M  END
> <PUBCHEM_COMPOUND_CID>
40510009

> <PUBCHEM_CONFORMER_RMSD>
0.6

> <PUBCHEM_CONFORMER_DIVERSEORDER>
1
15
3
21
23
9
16
12
25
18
20
22
11
19
13
17
5
14
6
4
24
10
7
2
8

> <PUBCHEM_MMFF94_PARTIAL_CHARGES>
18
1 -0.68
10 0.14
11 -0.3
17 0.15
18 0.15
19 0.4
2 0.42
20 0.15
21 0.15
22 0.15
26 0.15
27 0.15
3 0.14
5 -0.29
6 -0.29
7 -0.15
8 -0.14
9 -0.3

> <PUBCHEM_EFFECTIVE_ROTOR_COUNT>
4

> <PUBCHEM_PHARMACOPHORE_FEATURES>
3
1 1 acceptor
1 1 donor
1 9 hydrophobe

> <PUBCHEM_HEAVY_ATOM_COUNT>
11

> <PUBCHEM_ATOM_DEF_STEREO_COUNT>
1

> <PUBCHEM_ATOM_UDEF_STEREO_COUNT>
0

> <PUBCHEM_BOND_DEF_STEREO_COUNT>
1

> <PUBCHEM_BOND_UDEF_STEREO_COUNT>
0

> <PUBCHEM_ISOTOPIC_ATOM_COUNT>
0

> <PUBCHEM_COMPONENT_COUNT>
1

> <PUBCHEM_CACTVS_TAUTO_COUNT>
1

> <PUBCHEM_CONFORMER_ID>
026A223900000001

> <PUBCHEM_MMFF94_ENERGY>
16.8227

> <PUBCHEM_FEATURE_SELFOVERLAP>
15.223

> <PUBCHEM_SHAPE_FINGERPRINT>
10219947 1 18409448115652550428
107287 299 18411146852411277210
12932764 1 17632578236450877145
13296908 3 17967821535125260795
14144814 61 17203610376354628317
14251717 144 18341606014783101439
14252887 29 18115041774118577721
15375358 24 18186514423665083149
15775835 57 17846784013668652551
18186145 218 17168146693878860333
19422 9 17203620275921955956
20201158 50 18333732416205848611
20279233 1 18113057142787731283
20645477 70 18340764836990676767
20711985 344 17680144071335543037
21730867 7 18411700984722967542
23402539 116 15719665558782754684
23557571 272 16877665668927697861
3248919 1 18260829285015436273
581208 293 18341607131226392550
8030462 33 18131072619181166673
81228 2 18043527218545406117

> <PUBCHEM_SHAPE_MULTIPOLES>
220.51
6.31
1.5
1.11
3.88
0.82
0.3
0.24
-0.45
-1.39
-0.16
0.47
0.08
0.19

> <PUBCHEM_SHAPE_SELFOVERLAP>
416.048

> <PUBCHEM_SHAPE_VOLUME>
137.8

> <PUBCHEM_COORDINATE_TYPE>
2
5
10

$$$$
