11063337
  -OEChem-02172602313D

 22 22  0     0  0  0  0  0  0999 V2000
   -3.1160    2.0040   -0.0792 O   0  0  0  0  0  0  0  0  0  0  0  0
   -4.3184   -0.4652    0.3525 O   0  0  0  0  0  0  0  0  0  0  0  0
    1.8584    0.1385    1.6110 O   0  0  0  0  0  0  0  0  0  0  0  0
    4.3799    0.2377    0.8976 O   0  0  0  0  0  0  0  0  0  0  0  0
    3.9613   -0.0076   -1.3255 O   0  0  0  0  0  0  0  0  0  0  0  0
   -0.2422   -0.2320   -0.4010 C   0  0  0  0  0  0  0  0  0  0  0  0
   -1.0085    0.9330   -0.3645 C   0  0  0  0  0  0  0  0  0  0  0  0
   -0.8456   -1.4708   -0.1847 C   0  0  0  0  0  0  0  0  0  0  0  0
   -2.3782    0.8592   -0.1118 C   0  0  0  0  0  0  0  0  0  0  0  0
   -2.9818   -0.3796    0.1045 C   0  0  0  0  0  0  0  0  0  0  0  0
   -2.2155   -1.5446    0.0681 C   0  0  0  0  0  0  0  0  0  0  0  0
    1.1864   -0.1552   -0.6635 C   0  0  0  0  0  0  0  0  0  0  0  0
    2.1525    0.0087    0.2696 C   0  0  0  0  0  0  0  0  0  0  0  0
    3.5677    0.0738   -0.1729 C   0  0  0  0  0  0  0  0  0  0  0  0
   -0.5464    1.9036   -0.5325 H   0  0  0  0  0  0  0  0  0  0  0  0
   -0.2618   -2.3878   -0.2100 H   0  0  0  0  0  0  0  0  0  0  0  0
   -2.6728   -2.5162    0.2349 H   0  0  0  0  0  0  0  0  0  0  0  0
    1.4485   -0.2478   -1.7152 H   0  0  0  0  0  0  0  0  0  0  0  0
   -4.0409    1.7665    0.1076 H   0  0  0  0  0  0  0  0  0  0  0  0
   -4.5584   -1.3995    0.4769 H   0  0  0  0  0  0  0  0  0  0  0  0
    2.6999    0.2551    2.0846 H   0  0  0  0  0  0  0  0  0  0  0  0
    5.3249    0.2840    0.6382 H   0  0  0  0  0  0  0  0  0  0  0  0
  1  9  1  0  0  0  0
  1 19  1  0  0  0  0
  2 10  1  0  0  0  0
  2 20  1  0  0  0  0
  3 13  1  0  0  0  0
  3 21  1  0  0  0  0
  4 14  1  0  0  0  0
  4 22  1  0  0  0  0
  5 14  2  0  0  0  0
  6  7  2  0  0  0  0
  6  8  1  0  0  0  0
  6 12  1  0  0  0  0
  7  9  1  0  0  0  0
  7 15  1  0  0  0  0
  8 11  2  0  0  0  0
  8 16  1  0  0  0  0
  9 10  2  0  0  0  0
 10 11  1  0  0  0  0
 11 17  1  0  0  0  0
 12 13  2  0  0  0  0
 12 18  1  0  0  0  0
 13 14  1  0  0  0  0
M  END
> <PUBCHEM_COMPOUND_CID>
11063337

> <PUBCHEM_CONFORMER_RMSD>
0.6

> <PUBCHEM_CONFORMER_DIVERSEORDER>
1
4
2
3

> <PUBCHEM_MMFF94_PARTIAL_CHARGES>
22
1 -0.53
10 0.08
11 -0.15
12 -0.18
13 0.09
14 0.71
15 0.15
16 0.15
17 0.15
18 0.15
19 0.45
2 -0.53
20 0.45
21 0.45
22 0.5
3 -0.53
4 -0.65
5 -0.57
6 0.03
7 -0.15
8 -0.15
9 0.08

> <PUBCHEM_EFFECTIVE_ROTOR_COUNT>
2

> <PUBCHEM_PHARMACOPHORE_FEATURES>
7
1 1 donor
1 2 donor
1 3 donor
1 4 acceptor
1 5 acceptor
3 4 5 14 anion
6 6 7 8 9 10 11 rings

> <PUBCHEM_HEAVY_ATOM_COUNT>
14

> <PUBCHEM_ATOM_DEF_STEREO_COUNT>
0

> <PUBCHEM_ATOM_UDEF_STEREO_COUNT>
0

> <PUBCHEM_BOND_DEF_STEREO_COUNT>
1

> <PUBCHEM_BOND_UDEF_STEREO_COUNT>
0

> <PUBCHEM_ISOTOPIC_ATOM_COUNT>
0

> <PUBCHEM_COMPONENT_COUNT>
1

> <PUBCHEM_CACTVS_TAUTO_COUNT>
28

> <PUBCHEM_CONFORMER_ID>
00A8D02900000001

> <PUBCHEM_MMFF94_ENERGY>
34.9235

> <PUBCHEM_FEATURE_SELFOVERLAP>
35.582

> <PUBCHEM_SHAPE_FINGERPRINT>
10608611 8 18273210911146562816
11132069 177 18413387656929252301
12186901 62 18410864234778041909
12236239 1 17530966899503080182
12251169 10 18334856142674486732
124424 183 17703505515518923998
12932764 1 17846489335772738886
13024252 1 13623525754052366087
13581323 91 18334858328812944391
14144814 61 18259700090657421196
14325111 11 18410293566742022182
14993402 34 18040435511974484143
15219456 202 18130511825053466958
15653759 3 18272931643698328098
15669948 3 18335416902252979679
15775835 57 18187645756447092481
16945 1 18410569613412982999
18186145 218 16702017569619843718
190213 19 17748824120487744462
19422 9 17749389252353163018
200 152 15430029976521266571
20279233 1 17775286075687199294
20510252 161 18342741784651293369
20645464 45 17989209252478137759
20645477 56 18131066073703579736
20645477 70 14562796755982171010
22445834 79 17749098976624544179
23048698 100 16950281818988089854
23175994 123 17203339909410817496
23402539 116 18411691111215756927
23559900 14 18272654498745068622
2748010 2 18121229688527039863
43471831 8 18260545580824605427
474 4 16807589515461244876
69090 78 17775562065764047271
77492 1 17530966899455620430
81228 2 17340381006803410095

> <PUBCHEM_SHAPE_MULTIPOLES>
258.77
7.55
1.33
0.95
4.01
0.12
0.12
0.67
0.53
-1.54
-0.05
0.89
0.02
0.18

> <PUBCHEM_SHAPE_SELFOVERLAP>
546.293

> <PUBCHEM_SHAPE_VOLUME>
144.5

> <PUBCHEM_COORDINATE_TYPE>
2
5
10

$$$$
