53386731
  -OEChem-02172602303D

 61 62  0     1  0  0  0  0  0999 V2000
   -0.9357   -0.6660   -0.5888 O   0  0  0  0  0  0  0  0  0  0  0  0
    2.4692   -1.8053    0.1129 O   0  0  0  0  0  0  0  0  0  0  0  0
    3.5032   -0.0713    1.2357 O   0  0  0  0  0  0  0  0  0  0  0  0
   -1.9863   -0.9871    0.3509 C   0  0  2  0  0  0  0  0  0  0  0  0
    0.1238   -1.6411   -0.5165 C   0  0  2  0  0  0  0  0  0  0  0  0
   -1.7035   -2.4191    0.8093 C   0  0  0  0  0  0  0  0  0  0  0  0
   -0.1941   -2.4930    0.7217 C   0  0  0  0  0  0  0  0  0  0  0  0
   -3.3239   -0.8940   -0.3840 C   0  0  0  0  0  0  0  0  0  0  0  0
    1.4774   -0.8966   -0.3831 C   0  0  2  0  0  0  0  0  0  0  0  0
   -1.9290   -0.0117    1.5610 C   0  0  0  0  0  0  0  0  0  0  0  0
    0.0449   -2.5146   -1.7790 C   0  0  0  0  0  0  0  0  0  0  0  0
    2.0686   -0.2485   -1.6519 C   0  0  0  0  0  0  0  0  0  0  0  0
   -3.3404   -1.8345   -1.5861 C   0  0  0  0  0  0  0  0  0  0  0  0
   -4.4778   -1.2107    0.5634 C   0  0  0  0  0  0  0  0  0  0  0  0
   -1.7548    1.4281    1.1597 C   0  0  0  0  0  0  0  0  0  0  0  0
    1.2476    0.8349   -2.3630 C   0  0  0  0  0  0  0  0  0  0  0  0
   -0.7805    2.2709    1.5585 C   0  0  0  0  0  0  0  0  0  0  0  0
    0.9682    2.0911   -1.5625 C   0  0  0  0  0  0  0  0  0  0  0  0
   -0.5694    3.6228    0.8960 C   0  0  0  0  0  0  0  0  0  0  0  0
    3.4211   -1.2484    0.9117 C   0  0  0  0  0  0  0  0  0  0  0  0
   -0.8010    3.7030   -0.6258 C   0  0  0  0  0  0  0  0  0  0  0  0
   -0.2984    2.5274   -1.4230 C   0  0  0  0  0  0  0  0  0  0  0  0
    0.2204    1.9638    2.6410 C   0  0  0  0  0  0  0  0  0  0  0  0
    2.1666    2.8089   -1.0103 C   0  0  0  0  0  0  0  0  0  0  0  0
    4.3838   -2.3092    1.3522 C   0  0  0  0  0  0  0  0  0  0  0  0
   -2.1161   -3.2034    0.1747 H   0  0  0  0  0  0  0  0  0  0  0  0
   -2.0615   -2.6218    1.8247 H   0  0  0  0  0  0  0  0  0  0  0  0
    0.2445   -2.0524    1.6252 H   0  0  0  0  0  0  0  0  0  0  0  0
    0.1779   -3.5203    0.6504 H   0  0  0  0  0  0  0  0  0  0  0  0
   -3.4624    0.1180   -0.7838 H   0  0  0  0  0  0  0  0  0  0  0  0
    1.3138   -0.0974    0.3524 H   0  0  0  0  0  0  0  0  0  0  0  0
   -1.0771   -0.3076    2.1796 H   0  0  0  0  0  0  0  0  0  0  0  0
   -2.7965   -0.1078    2.2189 H   0  0  0  0  0  0  0  0  0  0  0  0
   -0.0067   -1.9076   -2.6879 H   0  0  0  0  0  0  0  0  0  0  0  0
   -0.8454   -3.1500   -1.7867 H   0  0  0  0  0  0  0  0  0  0  0  0
    0.9129   -3.1786   -1.8508 H   0  0  0  0  0  0  0  0  0  0  0  0
    2.2910   -1.0412   -2.3789 H   0  0  0  0  0  0  0  0  0  0  0  0
    3.0572    0.1665   -1.4150 H   0  0  0  0  0  0  0  0  0  0  0  0
   -4.2596   -1.6579   -2.1599 H   0  0  0  0  0  0  0  0  0  0  0  0
   -2.5209   -1.6342   -2.2801 H   0  0  0  0  0  0  0  0  0  0  0  0
   -3.3594   -2.8962   -1.3327 H   0  0  0  0  0  0  0  0  0  0  0  0
   -4.6380   -0.4188    1.3000 H   0  0  0  0  0  0  0  0  0  0  0  0
   -5.4149   -1.2870   -0.0012 H   0  0  0  0  0  0  0  0  0  0  0  0
   -4.3469   -2.1602    1.0910 H   0  0  0  0  0  0  0  0  0  0  0  0
   -2.4662    1.7832    0.4181 H   0  0  0  0  0  0  0  0  0  0  0  0
    1.7994    1.1367   -3.2636 H   0  0  0  0  0  0  0  0  0  0  0  0
    0.3149    0.3945   -2.7329 H   0  0  0  0  0  0  0  0  0  0  0  0
    0.4638    3.9426    1.0840 H   0  0  0  0  0  0  0  0  0  0  0  0
   -1.2007    4.3657    1.3997 H   0  0  0  0  0  0  0  0  0  0  0  0
   -0.3644    4.6295   -1.0184 H   0  0  0  0  0  0  0  0  0  0  0  0
   -1.8800    3.7934   -0.8087 H   0  0  0  0  0  0  0  0  0  0  0  0
   -1.0901    1.9530   -1.9035 H   0  0  0  0  0  0  0  0  0  0  0  0
    0.3190    2.8240    3.3128 H   0  0  0  0  0  0  0  0  0  0  0  0
   -0.0630    1.1177    3.2709 H   0  0  0  0  0  0  0  0  0  0  0  0
    1.2013    1.7563    2.2025 H   0  0  0  0  0  0  0  0  0  0  0  0
    2.9545    2.8697   -1.7687 H   0  0  0  0  0  0  0  0  0  0  0  0
    1.9422    3.8365   -0.7119 H   0  0  0  0  0  0  0  0  0  0  0  0
    2.5639    2.2799   -0.1393 H   0  0  0  0  0  0  0  0  0  0  0  0
    5.1453   -1.8623    1.9977 H   0  0  0  0  0  0  0  0  0  0  0  0
    3.8538   -3.0779    1.9202 H   0  0  0  0  0  0  0  0  0  0  0  0
    4.8784   -2.7458    0.4809 H   0  0  0  0  0  0  0  0  0  0  0  0
  1  4  1  0  0  0  0
  1  5  1  0  0  0  0
  2  9  1  0  0  0  0
  2 20  1  0  0  0  0
  3 20  2  0  0  0  0
  4  6  1  0  0  0  0
  4  8  1  0  0  0  0
  4 10  1  0  0  0  0
  5  7  1  0  0  0  0
  5  9  1  0  0  0  0
  5 11  1  0  0  0  0
  6  7  1  0  0  0  0
  6 26  1  0  0  0  0
  6 27  1  0  0  0  0
  7 28  1  0  0  0  0
  7 29  1  0  0  0  0
  8 13  1  0  0  0  0
  8 14  1  0  0  0  0
  8 30  1  0  0  0  0
  9 12  1  0  0  0  0
  9 31  1  0  0  0  0
 10 15  1  0  0  0  0
 10 32  1  0  0  0  0
 10 33  1  0  0  0  0
 11 34  1  0  0  0  0
 11 35  1  0  0  0  0
 11 36  1  0  0  0  0
 12 16  1  0  0  0  0
 12 37  1  0  0  0  0
 12 38  1  0  0  0  0
 13 39  1  0  0  0  0
 13 40  1  0  0  0  0
 13 41  1  0  0  0  0
 14 42  1  0  0  0  0
 14 43  1  0  0  0  0
 14 44  1  0  0  0  0
 15 17  2  0  0  0  0
 15 45  1  0  0  0  0
 16 18  1  0  0  0  0
 16 46  1  0  0  0  0
 16 47  1  0  0  0  0
 17 19  1  0  0  0  0
 17 23  1  0  0  0  0
 18 22  2  0  0  0  0
 18 24  1  0  0  0  0
 19 21  1  0  0  0  0
 19 48  1  0  0  0  0
 19 49  1  0  0  0  0
 20 25  1  0  0  0  0
 21 22  1  0  0  0  0
 21 50  1  0  0  0  0
 21 51  1  0  0  0  0
 22 52  1  0  0  0  0
 23 53  1  0  0  0  0
 23 54  1  0  0  0  0
 23 55  1  0  0  0  0
 24 56  1  0  0  0  0
 24 57  1  0  0  0  0
 24 58  1  0  0  0  0
 25 59  1  0  0  0  0
 25 60  1  0  0  0  0
 25 61  1  0  0  0  0
M  END
> <PUBCHEM_COMPOUND_CID>
53386731

> <PUBCHEM_CONFORMER_RMSD>
0.8

> <PUBCHEM_CONFORMER_DIVERSEORDER>
1
7
9
2
5
3
11
10
8
4
6

> <PUBCHEM_MMFF94_PARTIAL_CHARGES>
20
1 -0.56
10 0.14
15 -0.29
16 0.14
17 -0.28
18 -0.28
19 0.14
2 -0.43
20 0.66
21 0.14
22 -0.29
23 0.14
24 0.14
25 0.06
3 -0.57
4 0.28
45 0.15
5 0.28
52 0.15
9 0.28

> <PUBCHEM_EFFECTIVE_ROTOR_COUNT>
4.8

> <PUBCHEM_PHARMACOPHORE_FEATURES>
4
1 1 acceptor
1 3 acceptor
3 8 13 14 hydrophobe
5 1 4 5 6 7 rings

> <PUBCHEM_HEAVY_ATOM_COUNT>
25

> <PUBCHEM_ATOM_DEF_STEREO_COUNT>
3

> <PUBCHEM_ATOM_UDEF_STEREO_COUNT>
0

> <PUBCHEM_BOND_DEF_STEREO_COUNT>
2

> <PUBCHEM_BOND_UDEF_STEREO_COUNT>
0

> <PUBCHEM_ISOTOPIC_ATOM_COUNT>
0

> <PUBCHEM_COMPONENT_COUNT>
1

> <PUBCHEM_CACTVS_TAUTO_COUNT>
1

> <PUBCHEM_CONFORMER_ID>
032E9DEB00000001

> <PUBCHEM_MMFF94_ENERGY>
68.9524

> <PUBCHEM_FEATURE_SELFOVERLAP>
20.297

> <PUBCHEM_SHAPE_FINGERPRINT>
11370993 70 17258223393795232293
12156800 1 16956703976312278349
12422481 6 18194979443739782153
12633257 1 18057043515159093832
13140716 1 18337115583604646449
13294875 104 17908703178321992093
133893 2 17910665789983193835
13965767 371 17113556817448176921
13994607 96 17701799017986376264
14114207 22 17408478130109173664
14142880 1 18049431552730155536
14181834 199 17770768311099378855
15881359 60 17392781171150829573
16945 1 18116447014256022967
17876694 64 18335704892647254922
17980427 23 18342458114529322398
192875 21 18335140877748029663
20600515 1 18410292535992504410
20715895 44 18118965785580293621
23419403 2 17910914137323444381
23557571 272 17274556346719869035
238 59 16620684775053353245
2803657 2 18121251811202149917
3380486 77 18335147479234336491
35225 105 17986678056452198852
484985 159 16809521060896397234
5845 1 11967387562509455841
81228 2 18123489197348189219

> <PUBCHEM_SHAPE_MULTIPOLES>
496.88
5.41
4.55
2.26
0.09
3.3
0
-4.61
-1.21
-0.85
-0.17
-0.65
0.71
-1.64

> <PUBCHEM_SHAPE_SELFOVERLAP>
1003.952

> <PUBCHEM_SHAPE_VOLUME>
290.4

> <PUBCHEM_COORDINATE_TYPE>
2
5
10

$$$$
