15560333
  -OEChem-02172602303D

 42 43  0     1  0  0  0  0  0999 V2000
   -1.4170   -2.4935    0.1035 O   0  0  0  0  0  0  0  0  0  0  0  0
   -0.5603    1.2466    0.0400 C   0  0  2  0  0  0  0  0  0  0  0  0
   -0.3919   -0.3027   -0.0641 C   0  0  1  0  0  0  0  0  0  0  0  0
   -1.7179   -1.1114   -0.1726 C   0  0  2  0  0  0  0  0  0  0  0  0
    0.6850   -0.6928   -1.1038 C   0  0  0  0  0  0  0  0  0  0  0  0
    0.8254    1.8472    0.4080 C   0  0  0  0  0  0  0  0  0  0  0  0
   -1.5618    1.5711    1.1758 C   0  0  0  0  0  0  0  0  0  0  0  0
    2.0490   -0.0250   -0.8403 C   0  0  1  0  0  0  0  0  0  0  0  0
   -2.6884   -0.6788    0.9430 C   0  0  0  0  0  0  0  0  0  0  0  0
    1.9186    1.4851   -0.6027 C   0  0  0  0  0  0  0  0  0  0  0  0
   -2.8916    0.8286    1.0383 C   0  0  0  0  0  0  0  0  0  0  0  0
   -1.0434    1.9329   -1.2592 C   0  0  0  0  0  0  0  0  0  0  0  0
   -2.4056   -1.0947   -1.5413 C   0  0  0  0  0  0  0  0  0  0  0  0
    2.7883   -0.6807    0.2914 C   0  0  0  0  0  0  0  0  0  0  0  0
    4.1581   -0.1449    0.5853 C   0  0  0  0  0  0  0  0  0  0  0  0
    2.2536   -1.6870    0.9988 C   0  0  0  0  0  0  0  0  0  0  0  0
   -0.0085   -0.5913    0.9221 H   0  0  0  0  0  0  0  0  0  0  0  0
    0.3501   -0.3742   -2.0986 H   0  0  0  0  0  0  0  0  0  0  0  0
    0.7808   -1.7815   -1.1975 H   0  0  0  0  0  0  0  0  0  0  0  0
    1.1319    1.4985    1.4028 H   0  0  0  0  0  0  0  0  0  0  0  0
    0.7556    2.9402    0.4811 H   0  0  0  0  0  0  0  0  0  0  0  0
   -1.7536    2.6508    1.2165 H   0  0  0  0  0  0  0  0  0  0  0  0
   -1.1188    1.3031    2.1445 H   0  0  0  0  0  0  0  0  0  0  0  0
    2.6593   -0.1725   -1.7423 H   0  0  0  0  0  0  0  0  0  0  0  0
   -2.3106   -1.0428    1.9090 H   0  0  0  0  0  0  0  0  0  0  0  0
   -3.6598   -1.1738    0.8157 H   0  0  0  0  0  0  0  0  0  0  0  0
    1.6831    1.9626   -1.5624 H   0  0  0  0  0  0  0  0  0  0  0  0
    2.8636    1.9447   -0.2951 H   0  0  0  0  0  0  0  0  0  0  0  0
   -3.5160    1.0511    1.9119 H   0  0  0  0  0  0  0  0  0  0  0  0
   -3.4491    1.1890    0.1679 H   0  0  0  0  0  0  0  0  0  0  0  0
   -0.9246    3.0209   -1.1830 H   0  0  0  0  0  0  0  0  0  0  0  0
   -0.4888    1.6140   -2.1447 H   0  0  0  0  0  0  0  0  0  0  0  0
   -2.1015    1.7680   -1.4623 H   0  0  0  0  0  0  0  0  0  0  0  0
   -1.7267   -1.4369   -2.3292 H   0  0  0  0  0  0  0  0  0  0  0  0
   -3.2490   -1.7963   -1.5554 H   0  0  0  0  0  0  0  0  0  0  0  0
   -2.7996   -0.1191   -1.8209 H   0  0  0  0  0  0  0  0  0  0  0  0
   -2.2518   -2.9924    0.1039 H   0  0  0  0  0  0  0  0  0  0  0  0
    4.7307   -0.0145   -0.3389 H   0  0  0  0  0  0  0  0  0  0  0  0
    4.1062    0.8130    1.1107 H   0  0  0  0  0  0  0  0  0  0  0  0
    4.7296   -0.8311    1.2206 H   0  0  0  0  0  0  0  0  0  0  0  0
    2.8264   -2.1213    1.8153 H   0  0  0  0  0  0  0  0  0  0  0  0
    1.3058   -2.1730    0.8273 H   0  0  0  0  0  0  0  0  0  0  0  0
  1  4  1  0  0  0  0
  1 37  1  0  0  0  0
  2  3  1  0  0  0  0
  2  6  1  0  0  0  0
  2  7  1  0  0  0  0
  2 12  1  0  0  0  0
  3  4  1  0  0  0  0
  3  5  1  0  0  0  0
  3 17  1  0  0  0  0
  4  9  1  0  0  0  0
  4 13  1  0  0  0  0
  5  8  1  0  0  0  0
  5 18  1  0  0  0  0
  5 19  1  0  0  0  0
  6 10  1  0  0  0  0
  6 20  1  0  0  0  0
  6 21  1  0  0  0  0
  7 11  1  0  0  0  0
  7 22  1  0  0  0  0
  7 23  1  0  0  0  0
  8 10  1  0  0  0  0
  8 14  1  0  0  0  0
  8 24  1  0  0  0  0
  9 11  1  0  0  0  0
  9 25  1  0  0  0  0
  9 26  1  0  0  0  0
 10 27  1  0  0  0  0
 10 28  1  0  0  0  0
 11 29  1  0  0  0  0
 11 30  1  0  0  0  0
 12 31  1  0  0  0  0
 12 32  1  0  0  0  0
 12 33  1  0  0  0  0
 13 34  1  0  0  0  0
 13 35  1  0  0  0  0
 13 36  1  0  0  0  0
 14 15  1  0  0  0  0
 14 16  2  0  0  0  0
 15 38  1  0  0  0  0
 15 39  1  0  0  0  0
 15 40  1  0  0  0  0
 16 41  1  0  0  0  0
 16 42  1  0  0  0  0
M  END
> <PUBCHEM_COMPOUND_CID>
15560333

> <PUBCHEM_CONFORMER_RMSD>
0.6

> <PUBCHEM_CONFORMER_DIVERSEORDER>
3
2
4
1

> <PUBCHEM_MMFF94_PARTIAL_CHARGES>
9
1 -0.68
14 -0.28
15 0.14
16 -0.3
37 0.4
4 0.28
41 0.15
42 0.15
8 0.14

> <PUBCHEM_EFFECTIVE_ROTOR_COUNT>
2.6

> <PUBCHEM_PHARMACOPHORE_FEATURES>
4
1 1 acceptor
1 1 donor
6 2 3 4 7 9 11 rings
6 2 3 5 6 8 10 rings

> <PUBCHEM_HEAVY_ATOM_COUNT>
16

> <PUBCHEM_ATOM_DEF_STEREO_COUNT>
4

> <PUBCHEM_ATOM_UDEF_STEREO_COUNT>
0

> <PUBCHEM_BOND_DEF_STEREO_COUNT>
0

> <PUBCHEM_BOND_UDEF_STEREO_COUNT>
0

> <PUBCHEM_ISOTOPIC_ATOM_COUNT>
0

> <PUBCHEM_COMPONENT_COUNT>
1

> <PUBCHEM_CACTVS_TAUTO_COUNT>
1

> <PUBCHEM_CONFORMER_ID>
00ED6E8D00000003

> <PUBCHEM_MMFF94_ENERGY>
55.1898

> <PUBCHEM_FEATURE_SELFOVERLAP>
20.312

> <PUBCHEM_SHAPE_FINGERPRINT>
11086676 242 18337971029109325096
11132069 177 18272654528108212904
11321824 6 18191852436379628946
12202030 40 16371585828254390497
12251169 10 18341338837599284904
12382932 28 18272376317327804952
12423570 1 18266470823037037972
12696612 119 18412553123599187100
13024252 1 15719398295863388689
13140716 1 18267872854933614218
13172582 1 18340778030734304297
13296909 8 17346590898157806271
13299463 15 11097867305870528808
13538477 17 18337968864392949631
13764800 53 17417816101864140872
14251711 518 18198069276965451359
14787075 74 16900463235002077732
14817 1 13324887572314457261
15001771 113 18338514260815058266
15375462 189 18260553311944423842
15775835 57 18335711494170289912
15881359 60 18267019453875300341
16945 1 18129680650355775709
20525323 117 18273493472644302966
21501502 16 18270402809714608253
22112679 90 18059015097999368885
22445834 79 18334580118259370210
232386 152 18341341049723700668
2334 1 18051699042064589406
23388829 49 18200864192731613358
23402539 116 18201991149538300423
23419403 2 17196237115708696661
23552423 10 18048326835802606733
23557571 272 16917350371926056139
2748010 2 17693113867626100581
53812654 25 18131074852701187193

> <PUBCHEM_SHAPE_MULTIPOLES>
323.4
5
2.22
1.33
3.06
0.02
-0.18
-1.03
1.26
-0.6
-0.01
-0.52
0.04
-0.64

> <PUBCHEM_SHAPE_SELFOVERLAP>
659.785

> <PUBCHEM_SHAPE_VOLUME>
186.6

> <PUBCHEM_COORDINATE_TYPE>
2
5
10

$$$$
