11403061
  -OEChem-02172602483D

 39 41  0     0  0  0  0  0  0999 V2000
   -4.8916   -2.5157   -0.1469 O   0  5  0  0  0  0  0  0  0  0  0  0
   -5.8007   -0.5554   -0.5338 O   0  0  0  0  0  0  0  0  0  0  0  0
    3.5252    0.2607   -0.1284 N   0  0  0  0  0  0  0  0  0  0  0  0
   -0.0066    1.3882    0.4428 N   0  0  0  0  0  0  0  0  0  0  0  0
   -4.8067   -1.2692   -0.2584 N   0  3  0  0  0  0  0  0  0  0  0  0
    3.5045   -0.9609    0.6884 C   0  0  0  0  0  0  0  0  0  0  0  0
    4.3476    0.0804   -1.3330 C   0  0  0  0  0  0  0  0  0  0  0  0
    4.9166   -1.3610    1.1186 C   0  0  0  0  0  0  0  0  0  0  0  0
    5.7874   -0.2854   -0.9687 C   0  0  0  0  0  0  0  0  0  0  0  0
    5.8373   -1.5265   -0.0852 C   0  0  0  0  0  0  0  0  0  0  0  0
    2.1647    0.6559   -0.4920 C   0  0  0  0  0  0  0  0  0  0  0  0
    1.3534    0.9642    0.7630 C   0  0  0  0  0  0  0  0  0  0  0  0
   -1.0816    0.5507    0.3109 C   0  0  0  0  0  0  0  0  0  0  0  0
   -2.1811    1.3553    0.0044 C   0  0  0  0  0  0  0  0  0  0  0  0
   -0.3676    2.6848    0.2355 C   0  0  0  0  0  0  0  0  0  0  0  0
   -1.7156    2.6993   -0.0398 C   0  0  0  0  0  0  0  0  0  0  0  0
   -1.1750   -0.8400    0.4358 C   0  0  0  0  0  0  0  0  0  0  0  0
   -3.4360    0.7443   -0.1875 C   0  0  0  0  0  0  0  0  0  0  0  0
   -3.5444   -0.6458   -0.0662 C   0  0  0  0  0  0  0  0  0  0  0  0
   -2.4300   -1.4239    0.2407 C   0  0  0  0  0  0  0  0  0  0  0  0
    3.0337   -1.7905    0.1447 H   0  0  0  0  0  0  0  0  0  0  0  0
    2.9556   -0.8240    1.6231 H   0  0  0  0  0  0  0  0  0  0  0  0
    4.3695    1.0121   -1.9113 H   0  0  0  0  0  0  0  0  0  0  0  0
    3.9238   -0.6968   -1.9827 H   0  0  0  0  0  0  0  0  0  0  0  0
    4.8802   -2.2981    1.6858 H   0  0  0  0  0  0  0  0  0  0  0  0
    5.3278   -0.5963    1.7901 H   0  0  0  0  0  0  0  0  0  0  0  0
    6.2588    0.5557   -0.4445 H   0  0  0  0  0  0  0  0  0  0  0  0
    6.3678   -0.4583   -1.8820 H   0  0  0  0  0  0  0  0  0  0  0  0
    6.8644   -1.7099    0.2487 H   0  0  0  0  0  0  0  0  0  0  0  0
    5.5255   -2.4028   -0.6667 H   0  0  0  0  0  0  0  0  0  0  0  0
    1.6691   -0.1234   -1.0862 H   0  0  0  0  0  0  0  0  0  0  0  0
    2.1969    1.5572   -1.1181 H   0  0  0  0  0  0  0  0  0  0  0  0
    1.8159    1.7775    1.3369 H   0  0  0  0  0  0  0  0  0  0  0  0
    1.2382    0.1177    1.4438 H   0  0  0  0  0  0  0  0  0  0  0  0
    0.3503    3.4918    0.2961 H   0  0  0  0  0  0  0  0  0  0  0  0
   -2.3026    3.5827   -0.2507 H   0  0  0  0  0  0  0  0  0  0  0  0
   -0.3130   -1.4555    0.6698 H   0  0  0  0  0  0  0  0  0  0  0  0
   -4.2899    1.3721   -0.4259 H   0  0  0  0  0  0  0  0  0  0  0  0
   -2.4969   -2.5054    0.3376 H   0  0  0  0  0  0  0  0  0  0  0  0
  1  5  1  0  0  0  0
  2  5  2  0  0  0  0
  3  6  1  0  0  0  0
  3  7  1  0  0  0  0
  3 11  1  0  0  0  0
  4 12  1  0  0  0  0
  4 13  1  0  0  0  0
  4 15  1  0  0  0  0
  5 19  1  0  0  0  0
  6  8  1  0  0  0  0
  6 21  1  0  0  0  0
  6 22  1  0  0  0  0
  7  9  1  0  0  0  0
  7 23  1  0  0  0  0
  7 24  1  0  0  0  0
  8 10  1  0  0  0  0
  8 25  1  0  0  0  0
  8 26  1  0  0  0  0
  9 10  1  0  0  0  0
  9 27  1  0  0  0  0
  9 28  1  0  0  0  0
 10 29  1  0  0  0  0
 10 30  1  0  0  0  0
 11 12  1  0  0  0  0
 11 31  1  0  0  0  0
 11 32  1  0  0  0  0
 12 33  1  0  0  0  0
 12 34  1  0  0  0  0
 13 14  2  0  0  0  0
 13 17  1  0  0  0  0
 14 16  1  0  0  0  0
 14 18  1  0  0  0  0
 15 16  2  0  0  0  0
 15 35  1  0  0  0  0
 16 36  1  0  0  0  0
 17 20  2  0  0  0  0
 17 37  1  0  0  0  0
 18 19  2  0  0  0  0
 18 38  1  0  0  0  0
 19 20  1  0  0  0  0
 20 39  1  0  0  0  0
M  CHG  2   1  -1   5   1
M  END
> <PUBCHEM_COMPOUND_CID>
11403061

> <PUBCHEM_CONFORMER_RMSD>
0.8

> <PUBCHEM_CONFORMER_DIVERSEORDER>
1
5
15
14
6
13
11
12
4
10
3
7
2
9
8

> <PUBCHEM_MMFF94_PARTIAL_CHARGES>
21
1 -0.52
11 0.27
12 0.26
13 -0.15
15 -0.3
16 -0.15
17 -0.15
18 -0.15
19 0.13
2 -0.52
20 -0.15
3 -0.81
35 0.15
36 0.15
37 0.15
38 0.15
39 0.15
4 0.05
5 0.91
6 0.27
7 0.27

> <PUBCHEM_EFFECTIVE_ROTOR_COUNT>
5.2

> <PUBCHEM_PHARMACOPHORE_FEATURES>
8
1 1 acceptor
1 1 anion
1 2 acceptor
1 3 cation
1 4 cation
5 4 13 14 15 16 rings
6 13 14 17 18 19 20 rings
6 3 6 7 8 9 10 rings

> <PUBCHEM_HEAVY_ATOM_COUNT>
20

> <PUBCHEM_ATOM_DEF_STEREO_COUNT>
0

> <PUBCHEM_ATOM_UDEF_STEREO_COUNT>
0

> <PUBCHEM_BOND_DEF_STEREO_COUNT>
0

> <PUBCHEM_BOND_UDEF_STEREO_COUNT>
0

> <PUBCHEM_ISOTOPIC_ATOM_COUNT>
0

> <PUBCHEM_COMPONENT_COUNT>
1

> <PUBCHEM_CACTVS_TAUTO_COUNT>
1

> <PUBCHEM_CONFORMER_ID>
00ADFF3500000001

> <PUBCHEM_MMFF94_ENERGY>
31.6946

> <PUBCHEM_FEATURE_SELFOVERLAP>
40.77

> <PUBCHEM_SHAPE_FINGERPRINT>
10595046 47 18334581218514815820
10616163 171 18338801104997072794
11046707 91 18341896281336184304
12107183 9 17396132440370014480
12166972 35 17821732757784117398
12236239 1 18041000605501603756
12760667 363 18411984658886632923
12788726 201 18335137553237316050
13167823 11 18260833644844805794
13288520 33 18413109454981475677
13862211 1 18341609343672899471
13955234 65 17839182157899929289
14251752 14 18113611249551313437
14251764 30 18041852838793550547
14508225 48 18335696157064401837
14576447 43 18260550013820899266
14790565 3 17476363799407103937
14866123 147 18341618054130320257
15183329 4 17676762093922228655
15352361 1 18411699902328048106
16752209 62 18334849489817637856
17804303 29 18343581841225268777
17857418 61 18334574620975492298
18222031 100 18131350846940912677
18681886 176 18410575073007363194
19784866 140 18259700108016762211
200 152 18259705588421372800
20374829 77 18413107273143273087
20403669 9 18343867722906840998
20871999 31 18259702285539106101
21054139 6 18187647973557864338
21267235 1 18410016563654597619
21728266 224 18335696088581418120
22950370 63 18410579521754705417
2297311 6 18272941496691025628
23402539 116 18410291376446111261
23403322 49 18411419509593217377
23522609 53 18123223235693859001
23557571 272 18059301967470814620
23559900 14 18411410726849983576
2871803 45 18335138704757971274
3004659 81 18186518809032414094
335352 9 18411134737178999565
351380 3 18412262848081642694
4214541 1 18336548197261179708
4325135 7 18340770433981903116
463206 1 18338231686448903051
465052 167 18200600305451125935
5104073 3 18202846564757058376
559249 180 18189611640588550346
573450 72 18262515867465303536
59682541 52 15069164728531168434
67856867 119 18260268577710540636
76465 3 18412260657484466473
7970288 3 18339920519219085527
8863177 126 17972327480201174515
9709674 26 18337963277226449722

> <PUBCHEM_SHAPE_MULTIPOLES>
384.91
13.31
2.42
0.92
7.99
0.76
-0.05
-9.05
-2.73
-2.37
0.2
1.03
-0.05
-0.72

> <PUBCHEM_SHAPE_SELFOVERLAP>
822.232

> <PUBCHEM_SHAPE_VOLUME>
215.7

> <PUBCHEM_COORDINATE_TYPE>
2
5
10

$$$$
