46209581
  -OEChem-02172602293D

 49 51  0     1  0  0  0  0  0999 V2000
   -1.5309   -0.3565    0.4948 O   0  0  0  0  0  0  0  0  0  0  0  0
   -1.1013    1.2119   -1.1800 O   0  0  0  0  0  0  0  0  0  0  0  0
   -4.7509   -1.8527   -1.5739 O   0  0  0  0  0  0  0  0  0  0  0  0
   -4.4675   -2.4391    1.2231 O   0  0  0  0  0  0  0  0  0  0  0  0
   -3.7407    0.8059   -2.1889 O   0  0  0  0  0  0  0  0  0  0  0  0
   -0.8938   -1.0187    3.0770 O   0  0  0  0  0  0  0  0  0  0  0  0
    3.4496    2.0330    0.1199 O   0  0  0  0  0  0  0  0  0  0  0  0
   -0.0588    4.7783    1.8074 O   0  0  0  0  0  0  0  0  0  0  0  0
    1.4055    0.4838   -2.5948 O   0  0  0  0  0  0  0  0  0  0  0  0
    4.3323   -3.9805    0.7758 O   0  0  0  0  0  0  0  0  0  0  0  0
   -4.0897   -0.9931   -0.6439 C   0  0  1  0  0  0  0  0  0  0  0  0
   -3.4336   -1.8569    0.4333 C   0  0  1  0  0  0  0  0  0  0  0  0
   -3.0515   -0.1529   -1.3878 C   0  0  2  0  0  0  0  0  0  0  0  0
   -2.5008   -1.0173    1.3093 C   0  0  1  0  0  0  0  0  0  0  0  0
   -2.1204    0.5700   -0.4145 C   0  0  1  0  0  0  0  0  0  0  0  0
   -1.7364   -1.8676    2.3194 C   0  0  0  0  0  0  0  0  0  0  0  0
   -0.1668    1.9246   -0.4796 C   0  0  0  0  0  0  0  0  0  0  0  0
    1.1871    1.5967   -0.5494 C   0  0  0  0  0  0  0  0  0  0  0  0
   -0.5855    2.9940    0.3122 C   0  0  0  0  0  0  0  0  0  0  0  0
    2.1224    2.3378    0.1729 C   0  0  0  0  0  0  0  0  0  0  0  0
    1.6240    0.4777   -1.3764 C   0  0  0  0  0  0  0  0  0  0  0  0
    0.3498    3.7354    1.0343 C   0  0  0  0  0  0  0  0  0  0  0  0
    1.7037    3.4073    0.9645 C   0  0  0  0  0  0  0  0  0  0  0  0
    2.3393   -0.7017   -0.8078 C   0  0  0  0  0  0  0  0  0  0  0  0
    2.0906   -1.1018    0.5051 C   0  0  0  0  0  0  0  0  0  0  0  0
    3.2577   -1.4035   -1.5888 C   0  0  0  0  0  0  0  0  0  0  0  0
    2.7604   -2.2035    1.0373 C   0  0  0  0  0  0  0  0  0  0  0  0
    3.9274   -2.5053   -1.0567 C   0  0  0  0  0  0  0  0  0  0  0  0
    3.6788   -2.9053    0.2563 C   0  0  0  0  0  0  0  0  0  0  0  0
   -4.8701   -0.3560   -0.2109 H   0  0  0  0  0  0  0  0  0  0  0  0
   -2.8798   -2.6778   -0.0384 H   0  0  0  0  0  0  0  0  0  0  0  0
   -2.4720   -0.7805   -2.0754 H   0  0  0  0  0  0  0  0  0  0  0  0
   -3.0645   -0.2564    1.8664 H   0  0  0  0  0  0  0  0  0  0  0  0
   -2.6908    1.3257    0.1408 H   0  0  0  0  0  0  0  0  0  0  0  0
   -1.1010   -2.6000    1.8101 H   0  0  0  0  0  0  0  0  0  0  0  0
   -2.4165   -2.3889    2.9997 H   0  0  0  0  0  0  0  0  0  0  0  0
   -4.0815   -2.4276   -1.9826 H   0  0  0  0  0  0  0  0  0  0  0  0
   -4.9383   -1.7205    1.6788 H   0  0  0  0  0  0  0  0  0  0  0  0
   -4.2398    1.3921   -1.5949 H   0  0  0  0  0  0  0  0  0  0  0  0
   -0.4059   -1.5818    3.7018 H   0  0  0  0  0  0  0  0  0  0  0  0
   -1.6357    3.2700    0.3562 H   0  0  0  0  0  0  0  0  0  0  0  0
    2.4262    3.9899    1.5308 H   0  0  0  0  0  0  0  0  0  0  0  0
    1.3738   -0.5797    1.1322 H   0  0  0  0  0  0  0  0  0  0  0  0
    3.4687   -1.1036   -2.6118 H   0  0  0  0  0  0  0  0  0  0  0  0
    3.9413    2.6519    0.6865 H   0  0  0  0  0  0  0  0  0  0  0  0
   -1.0255    4.8621    1.7398 H   0  0  0  0  0  0  0  0  0  0  0  0
    2.5604   -2.5118    2.0599 H   0  0  0  0  0  0  0  0  0  0  0  0
    4.6414   -3.0429   -1.6749 H   0  0  0  0  0  0  0  0  0  0  0  0
    4.9280   -4.3444    0.0985 H   0  0  0  0  0  0  0  0  0  0  0  0
  1 14  1  0  0  0  0
  1 15  1  0  0  0  0
  2 15  1  0  0  0  0
  2 17  1  0  0  0  0
  3 11  1  0  0  0  0
  3 37  1  0  0  0  0
  4 12  1  0  0  0  0
  4 38  1  0  0  0  0
  5 13  1  0  0  0  0
  5 39  1  0  0  0  0
  6 16  1  0  0  0  0
  6 40  1  0  0  0  0
  7 20  1  0  0  0  0
  7 45  1  0  0  0  0
  8 22  1  0  0  0  0
  8 46  1  0  0  0  0
  9 21  2  0  0  0  0
 10 29  1  0  0  0  0
 10 49  1  0  0  0  0
 11 12  1  0  0  0  0
 11 13  1  0  0  0  0
 11 30  1  0  0  0  0
 12 14  1  0  0  0  0
 12 31  1  0  0  0  0
 13 15  1  0  0  0  0
 13 32  1  0  0  0  0
 14 16  1  0  0  0  0
 14 33  1  0  0  0  0
 15 34  1  0  0  0  0
 16 35  1  0  0  0  0
 16 36  1  0  0  0  0
 17 18  1  0  0  0  0
 17 19  2  0  0  0  0
 18 20  2  0  0  0  0
 18 21  1  0  0  0  0
 19 22  1  0  0  0  0
 19 41  1  0  0  0  0
 20 23  1  0  0  0  0
 21 24  1  0  0  0  0
 22 23  2  0  0  0  0
 23 42  1  0  0  0  0
 24 25  2  0  0  0  0
 24 26  1  0  0  0  0
 25 27  1  0  0  0  0
 25 43  1  0  0  0  0
 26 28  2  0  0  0  0
 26 44  1  0  0  0  0
 27 29  2  0  0  0  0
 27 47  1  0  0  0  0
 28 29  1  0  0  0  0
 28 48  1  0  0  0  0
M  END
> <PUBCHEM_COMPOUND_CID>
46209581

> <PUBCHEM_CONFORMER_RMSD>
0.8

> <PUBCHEM_CONFORMER_DIVERSEORDER>
1
67
125
63
97
70
114
90
54
120
99
26
121
51
127
118
126
36
92
62
93
19
41
20
89
80
103
81
68
74
116
94
65
85
123
58
40
61
57
119
100
83
115
42
47
66
122
78
110
124
79
27
10
25
8
32
87
75
34
108
31
88
86
5
96
98
50
46
84
71
49
55
117
69
53
43
13
17
104
60
112
73
52
3
24
76
4
44
15
45
22
30
111
95
21
106
7
101
113
56
6
39
35
77
107
18
2
28
23
38
14
48
91
9
82
109
12
37
72
102
64
16
59
105
11
33
29

> <PUBCHEM_MMFF94_PARTIAL_CHARGES>
42
1 -0.56
10 -0.53
11 0.28
12 0.28
13 0.28
14 0.28
15 0.56
16 0.28
17 0.08
18 0.09
19 -0.15
2 -0.36
20 0.08
21 0.4
22 0.08
23 -0.15
24 0.09
25 -0.15
26 -0.15
27 -0.15
28 -0.15
29 0.08
3 -0.68
37 0.4
38 0.4
39 0.4
4 -0.68
40 0.4
41 0.15
42 0.15
43 0.15
44 0.15
45 0.45
46 0.45
47 0.15
48 0.15
49 0.45
5 -0.68
6 -0.68
7 -0.53
8 -0.53
9 -0.57

> <PUBCHEM_EFFECTIVE_ROTOR_COUNT>
6.2

> <PUBCHEM_PHARMACOPHORE_FEATURES>
17
1 1 acceptor
1 10 donor
1 2 acceptor
1 3 acceptor
1 3 donor
1 4 acceptor
1 4 donor
1 5 acceptor
1 5 donor
1 6 acceptor
1 6 donor
1 7 donor
1 8 donor
1 9 acceptor
6 1 11 12 13 14 15 rings
6 17 18 19 20 22 23 rings
6 24 25 26 27 28 29 rings

> <PUBCHEM_HEAVY_ATOM_COUNT>
29

> <PUBCHEM_ATOM_DEF_STEREO_COUNT>
5

> <PUBCHEM_ATOM_UDEF_STEREO_COUNT>
0

> <PUBCHEM_BOND_DEF_STEREO_COUNT>
0

> <PUBCHEM_BOND_UDEF_STEREO_COUNT>
0

> <PUBCHEM_ISOTOPIC_ATOM_COUNT>
0

> <PUBCHEM_COMPONENT_COUNT>
1

> <PUBCHEM_CACTVS_TAUTO_COUNT>
45

> <PUBCHEM_CONFORMER_ID>
02C11A2D00000001

> <PUBCHEM_MMFF94_ENERGY>
96.555

> <PUBCHEM_FEATURE_SELFOVERLAP>
86.342

> <PUBCHEM_SHAPE_FINGERPRINT>
10366900 7 18191869148329668413
10764073 3 17463646001768998056
1100329 8 18123467172740545337
114674 6 18118974825679369306
11578080 2 17824813452665430996
11582403 64 16678584919870365205
12363563 72 18341613663951063742
12553582 1 18268721510528092270
12788726 201 18051992328228049500
13140716 1 18341620252467825065
13533116 47 18267591380954182139
13631057 29 18262817168217079966
13911987 19 17976561712264395388
14787075 74 18337968878174774332
14844126 61 17981318993749682798
20600515 1 17826202169799183776
20775438 99 17903334237844515911
20832881 197 18335980849271634453
22182313 1 17678447787778569499
23419403 2 17683476837472165052
23559900 14 17894909684876976943
23728640 28 17690572887658958024
35225 105 17480889440452540976
394222 165 17414429807988166309
44802255 64 10972792004999365017
463206 1 18408881820004852543
57527295 17 18411136970034544421
57527585 103 16810990025141587227
6438718 38 17765180283632109522
66674814 147 16034357103902711519

> <PUBCHEM_SHAPE_MULTIPOLES>
538.11
7.75
5.13
2.18
2.73
4.05
-0.31
-9.32
1.91
-3.26
-2.87
1.08
-0.44
0.53

> <PUBCHEM_SHAPE_SELFOVERLAP>
1163.594

> <PUBCHEM_SHAPE_VOLUME>
291.8

> <PUBCHEM_COORDINATE_TYPE>
2
5
10

$$$$
