102434440
  -OEChem-02172602423D

 47 50  0     1  0  0  0  0  0999 V2000
    1.2904    0.2529    1.7751 S   0  0  0  0  0  0  0  0  0  0  0  0
    1.6156   -0.9372    2.5402 O   0  0  0  0  0  0  0  0  0  0  0  0
    0.9526    1.4777    2.4771 O   0  0  0  0  0  0  0  0  0  0  0  0
    0.0546   -0.1263    0.6233 N   0  0  1  0  0  0  0  0  0  0  0  0
   -3.3291    0.6171   -2.3330 N   0  0  0  0  0  0  0  0  0  0  0  0
   -0.2130    0.8740   -0.4469 C   0  0  0  0  0  0  0  0  0  0  0  0
   -1.5972    0.8206   -0.9597 C   0  0  0  0  0  0  0  0  0  0  0  0
   -2.7887    1.0001   -0.2027 C   0  0  0  0  0  0  0  0  0  0  0  0
   -3.8606    0.8675   -1.0880 C   0  0  0  0  0  0  0  0  0  0  0  0
   -0.0540   -1.5182    0.2367 C   0  0  0  0  0  0  0  0  0  0  0  0
   -1.9621    0.5869   -2.2655 C   0  0  0  0  0  0  0  0  0  0  0  0
    2.6947    0.6114    0.7544 C   0  0  0  0  0  0  0  0  0  0  0  0
   -3.0589    1.2635    1.1549 C   0  0  0  0  0  0  0  0  0  0  0  0
   -5.1945    0.9856   -0.6818 C   0  0  0  0  0  0  0  0  0  0  0  0
    2.9234    1.9160    0.3170 C   0  0  0  0  0  0  0  0  0  0  0  0
    3.5690   -0.4112    0.3864 C   0  0  0  0  0  0  0  0  0  0  0  0
    0.7641   -2.0279   -0.7717 C   0  0  0  0  0  0  0  0  0  0  0  0
   -0.9765   -2.3488    0.8727 C   0  0  0  0  0  0  0  0  0  0  0  0
   -4.3883    1.3841    1.5755 C   0  0  0  0  0  0  0  0  0  0  0  0
   -5.4383    1.2469    0.6695 C   0  0  0  0  0  0  0  0  0  0  0  0
    4.9012    1.1755   -0.8566 C   0  0  0  0  0  0  0  0  0  0  0  0
    4.0267    2.1980   -0.4885 C   0  0  0  0  0  0  0  0  0  0  0  0
    4.6722   -0.1292   -0.4192 C   0  0  0  0  0  0  0  0  0  0  0  0
    0.6596   -3.3681   -1.1441 C   0  0  0  0  0  0  0  0  0  0  0  0
   -1.0809   -3.6891    0.5006 C   0  0  0  0  0  0  0  0  0  0  0  0
   -0.2629   -4.1987   -0.5080 C   0  0  0  0  0  0  0  0  0  0  0  0
    6.0808    1.4771   -1.7178 C   0  0  0  0  0  0  0  0  0  0  0  0
    0.5078    0.7585   -1.2647 H   0  0  0  0  0  0  0  0  0  0  0  0
   -0.0629    1.8809   -0.0378 H   0  0  0  0  0  0  0  0  0  0  0  0
   -1.3736    0.4009   -3.1533 H   0  0  0  0  0  0  0  0  0  0  0  0
   -3.8706    0.4757   -3.1745 H   0  0  0  0  0  0  0  0  0  0  0  0
   -2.2533    1.3752    1.8749 H   0  0  0  0  0  0  0  0  0  0  0  0
   -6.0125    0.8789   -1.3863 H   0  0  0  0  0  0  0  0  0  0  0  0
    2.2550    2.7277    0.5895 H   0  0  0  0  0  0  0  0  0  0  0  0
    3.4125   -1.4339    0.7171 H   0  0  0  0  0  0  0  0  0  0  0  0
    1.4784   -1.3988   -1.2935 H   0  0  0  0  0  0  0  0  0  0  0  0
   -1.6182   -1.9607    1.6594 H   0  0  0  0  0  0  0  0  0  0  0  0
   -4.6027    1.5875    2.6214 H   0  0  0  0  0  0  0  0  0  0  0  0
   -6.4633    1.3445    1.0179 H   0  0  0  0  0  0  0  0  0  0  0  0
    4.1951    3.2185   -0.8220 H   0  0  0  0  0  0  0  0  0  0  0  0
    5.3473   -0.9340   -0.6977 H   0  0  0  0  0  0  0  0  0  0  0  0
    1.2939   -3.7640   -1.9317 H   0  0  0  0  0  0  0  0  0  0  0  0
   -1.7994   -4.3358    0.9956 H   0  0  0  0  0  0  0  0  0  0  0  0
   -0.3449   -5.2420   -0.7984 H   0  0  0  0  0  0  0  0  0  0  0  0
    6.9437    1.7351   -1.0959 H   0  0  0  0  0  0  0  0  0  0  0  0
    6.3435    0.6172   -2.3434 H   0  0  0  0  0  0  0  0  0  0  0  0
    5.8728    2.3131   -2.3942 H   0  0  0  0  0  0  0  0  0  0  0  0
  1  2  2  0  0  0  0
  1  3  2  0  0  0  0
  1  4  1  0  0  0  0
  1 12  1  0  0  0  0
  4  6  1  0  0  0  0
  4 10  1  0  0  0  0
  5  9  1  0  0  0  0
  5 11  1  0  0  0  0
  5 31  1  0  0  0  0
  6  7  1  0  0  0  0
  6 28  1  0  0  0  0
  6 29  1  0  0  0  0
  7  8  1  0  0  0  0
  7 11  2  0  0  0  0
  8  9  1  0  0  0  0
  8 13  2  0  0  0  0
  9 14  2  0  0  0  0
 10 17  2  0  0  0  0
 10 18  1  0  0  0  0
 11 30  1  0  0  0  0
 12 15  2  0  0  0  0
 12 16  1  0  0  0  0
 13 19  1  0  0  0  0
 13 32  1  0  0  0  0
 14 20  1  0  0  0  0
 14 33  1  0  0  0  0
 15 22  1  0  0  0  0
 15 34  1  0  0  0  0
 16 23  2  0  0  0  0
 16 35  1  0  0  0  0
 17 24  1  0  0  0  0
 17 36  1  0  0  0  0
 18 25  2  0  0  0  0
 18 37  1  0  0  0  0
 19 20  2  0  0  0  0
 19 38  1  0  0  0  0
 20 39  1  0  0  0  0
 21 22  2  0  0  0  0
 21 23  1  0  0  0  0
 21 27  1  0  0  0  0
 22 40  1  0  0  0  0
 23 41  1  0  0  0  0
 24 26  2  0  0  0  0
 24 42  1  0  0  0  0
 25 26  1  0  0  0  0
 25 43  1  0  0  0  0
 26 44  1  0  0  0  0
 27 45  1  0  0  0  0
 27 46  1  0  0  0  0
 27 47  1  0  0  0  0
M  END
> <PUBCHEM_COMPOUND_CID>
102434440

> <PUBCHEM_CONFORMER_RMSD>
0.8

> <PUBCHEM_CONFORMER_DIVERSEORDER>
2
5
47
75
53
56
20
61
63
80
57
66
42
64
44
62
82
41
16
19
43
9
98
81
83
40
70
72
92
87
58
29
48
45
59
95
54
52
60
65
30
24
88
90
36
33
38
85
6
28
23
78
32
50
73
22
39
35
84
94
11
97
15
77
26
21
89
49
10
37
25
31
8
46
68
71
91
34
14
7
93
55
51
67
76
3
96
12
4
74
18
69
17
27
79
13
86
1

> <PUBCHEM_MMFF94_PARTIAL_CHARGES>
41
1 1.45
10 0.2
11 -0.3
12 -0.01
13 -0.15
14 -0.15
15 -0.15
16 -0.15
17 -0.15
18 -0.15
19 -0.15
2 -0.65
20 -0.15
21 -0.14
22 -0.15
23 -0.15
24 -0.15
25 -0.15
26 -0.15
27 0.14
3 -0.65
30 0.15
31 0.27
32 0.15
33 0.15
34 0.15
35 0.15
36 0.15
37 0.15
38 0.15
39 0.15
4 -0.69
40 0.15
41 0.15
42 0.15
43 0.15
44 0.15
5 0.03
6 0.54
7 -0.18
9 -0.15

> <PUBCHEM_EFFECTIVE_ROTOR_COUNT>
5

> <PUBCHEM_PHARMACOPHORE_FEATURES>
8
1 2 acceptor
1 3 acceptor
1 5 cation
1 5 donor
5 5 7 8 9 11 rings
6 10 17 18 24 25 26 rings
6 12 15 16 21 22 23 rings
6 8 9 13 14 19 20 rings

> <PUBCHEM_HEAVY_ATOM_COUNT>
27

> <PUBCHEM_ATOM_DEF_STEREO_COUNT>
0

> <PUBCHEM_ATOM_UDEF_STEREO_COUNT>
0

> <PUBCHEM_BOND_DEF_STEREO_COUNT>
0

> <PUBCHEM_BOND_UDEF_STEREO_COUNT>
0

> <PUBCHEM_ISOTOPIC_ATOM_COUNT>
0

> <PUBCHEM_COMPONENT_COUNT>
1

> <PUBCHEM_CACTVS_TAUTO_COUNT>
14

> <PUBCHEM_CONFORMER_ID>
061B068800000002

> <PUBCHEM_MMFF94_ENERGY>
66.0435

> <PUBCHEM_FEATURE_SELFOVERLAP>
40.707

> <PUBCHEM_SHAPE_FINGERPRINT>
10165383 225 18410302401537469557
10366900 7 18272359855367187977
105312 117 18410302440540042814
10906281 52 17273394266551942528
11421498 54 18130231432783308529
11488393 25 18044938961136120210
12156800 1 17828802682128772495
12160290 23 17906139057271979599
12422481 6 17899728861848579123
12788726 201 17905868628698141650
12895836 83 18336550520738325236
12895837 130 17825684510803783804
13135754 10 17972607850806631131
133893 2 17907553871223187799
13583140 156 16588568847290109733
13911987 19 18261384551399226205
144659 39 18041859413981837412
14713325 29 18192161592674023274
14840074 17 17822007631960511981
17980427 23 13407086885660862135
1813 80 17196573295700045167
18785283 64 18191587449988615650
19319366 153 18130507414554654663
20465049 17 17132112442562660209
21033650 10 17273443641459494936
21365058 27 18342471347740754439
22620623 9 18123753312220148390
22907989 373 18052816141599429566
23227448 37 17168433778162110964
2637199 183 18342737416437431616
3004659 81 16486980583698651916
3027735 51 11383297204474079493
340366 18 18261115180030245302
3729539 64 18120953715388150558
4058900 60 18264777567025742241
458136 41 18339638932714961307
469060 322 16371837633718605703
474 4 18342173324085753205
5252454 2 18186794825095376004
57527293 21 17676485017524798795
59755656 520 18410581699028818028
633830 44 17774703342856241961
6669772 16 18186524272442324618
81228 2 17758933189202071987

> <PUBCHEM_SHAPE_MULTIPOLES>
537.8
10.48
3.64
2.04
2.64
5.75
-0.25
-9.79
2.93
0.08
0.34
-0.39
-0.51
-0.53

> <PUBCHEM_SHAPE_SELFOVERLAP>
1168.16

> <PUBCHEM_SHAPE_VOLUME>
294.7

> <PUBCHEM_COORDINATE_TYPE>
2
5
10

$$$$
