12314661
  -OEChem-02172602243D

 28 30  0     1  0  0  0  0  0999 V2000
   -0.6684    1.6367   -0.2999 O   0  0  0  0  0  0  0  0  0  0  0  0
    2.0622    0.8975   -0.6218 O   0  0  0  0  0  0  0  0  0  0  0  0
   -0.9109    0.2459   -0.0491 C   0  0  2  0  0  0  0  0  0  0  0  0
    0.0072    1.0712    0.8301 C   0  0  1  0  0  0  0  0  0  0  0  0
    1.5071    0.8564    0.7093 C   0  0  1  0  0  0  0  0  0  0  0  0
    1.9996   -0.3849    0.0020 C   0  0  1  0  0  0  0  0  0  0  0  0
   -0.3002   -0.6775   -1.0650 C   0  0  0  0  0  0  0  0  0  0  0  0
    0.9833   -1.3451   -0.5489 C   0  0  0  0  0  0  0  0  0  0  0  0
   -2.2810   -0.0470    0.4135 C   0  0  0  0  0  0  0  0  0  0  0  0
    3.3471   -0.9290    0.3475 C   0  0  0  0  0  0  0  0  0  0  0  0
   -3.3306    0.1507   -0.6991 C   0  0  0  0  0  0  0  0  0  0  0  0
   -2.4153   -1.4748    0.9813 C   0  0  0  0  0  0  0  0  0  0  0  0
   -0.3542    1.3556    1.8123 H   0  0  0  0  0  0  0  0  0  0  0  0
    2.1191    1.2752    1.5000 H   0  0  0  0  0  0  0  0  0  0  0  0
   -0.0629   -0.1042   -1.9713 H   0  0  0  0  0  0  0  0  0  0  0  0
   -0.9943   -1.4582   -1.3918 H   0  0  0  0  0  0  0  0  0  0  0  0
    0.7204   -2.0585    0.2420 H   0  0  0  0  0  0  0  0  0  0  0  0
    1.4304   -1.9234   -1.3661 H   0  0  0  0  0  0  0  0  0  0  0  0
   -2.5488    0.6431    1.2252 H   0  0  0  0  0  0  0  0  0  0  0  0
    3.2598   -1.6864    1.1330 H   0  0  0  0  0  0  0  0  0  0  0  0
    3.8080   -1.3959   -0.5290 H   0  0  0  0  0  0  0  0  0  0  0  0
    4.0266   -0.1487    0.7071 H   0  0  0  0  0  0  0  0  0  0  0  0
   -3.1715   -0.5390   -1.5344 H   0  0  0  0  0  0  0  0  0  0  0  0
   -4.3410   -0.0157   -0.3107 H   0  0  0  0  0  0  0  0  0  0  0  0
   -3.2860    1.1702   -1.0966 H   0  0  0  0  0  0  0  0  0  0  0  0
   -2.2996   -2.2431    0.2108 H   0  0  0  0  0  0  0  0  0  0  0  0
   -3.4014   -1.6117    1.4383 H   0  0  0  0  0  0  0  0  0  0  0  0
   -1.6586   -1.6544    1.7526 H   0  0  0  0  0  0  0  0  0  0  0  0
  1  3  1  0  0  0  0
  1  4  1  0  0  0  0
  2  5  1  0  0  0  0
  2  6  1  0  0  0  0
  3  4  1  0  0  0  0
  3  7  1  0  0  0  0
  3  9  1  0  0  0  0
  4  5  1  0  0  0  0
  4 13  1  0  0  0  0
  5  6  1  0  0  0  0
  5 14  1  0  0  0  0
  6  8  1  0  0  0  0
  6 10  1  0  0  0  0
  7  8  1  0  0  0  0
  7 15  1  0  0  0  0
  7 16  1  0  0  0  0
  8 17  1  0  0  0  0
  8 18  1  0  0  0  0
  9 11  1  0  0  0  0
  9 12  1  0  0  0  0
  9 19  1  0  0  0  0
 10 20  1  0  0  0  0
 10 21  1  0  0  0  0
 10 22  1  0  0  0  0
 11 23  1  0  0  0  0
 11 24  1  0  0  0  0
 11 25  1  0  0  0  0
 12 26  1  0  0  0  0
 12 27  1  0  0  0  0
 12 28  1  0  0  0  0
M  END
> <PUBCHEM_COMPOUND_CID>
12314661

> <PUBCHEM_CONFORMER_RMSD>
0.4

> <PUBCHEM_CONFORMER_DIVERSEORDER>
1
4
5
2
3

> <PUBCHEM_MMFF94_PARTIAL_CHARGES>
12
1 -0.3
10 0.09
13 0.1
14 0.1
2 -0.3
3 -0.04
4 0.05
5 0.05
6 -0.04
7 0.09
8 0.09
9 0.09

> <PUBCHEM_EFFECTIVE_ROTOR_COUNT>
1.8

> <PUBCHEM_PHARMACOPHORE_FEATURES>
4
1 1 acceptor
1 2 acceptor
3 9 11 12 hydrophobe
8 1 2 3 4 5 6 7 8 rings

> <PUBCHEM_HEAVY_ATOM_COUNT>
12

> <PUBCHEM_ATOM_DEF_STEREO_COUNT>
4

> <PUBCHEM_ATOM_UDEF_STEREO_COUNT>
0

> <PUBCHEM_BOND_DEF_STEREO_COUNT>
0

> <PUBCHEM_BOND_UDEF_STEREO_COUNT>
0

> <PUBCHEM_ISOTOPIC_ATOM_COUNT>
0

> <PUBCHEM_COMPONENT_COUNT>
1

> <PUBCHEM_CACTVS_TAUTO_COUNT>
1

> <PUBCHEM_CONFORMER_ID>
00BBE82500000001

> <PUBCHEM_MMFF94_ENERGY>
22.2096

> <PUBCHEM_FEATURE_SELFOVERLAP>
20.3

> <PUBCHEM_SHAPE_FINGERPRINT>
10130415 120 18410291385051662249
10219947 1 18131350816923594743
10857977 72 18412825819441075435
11769659 78 17894345588188574786
12138202 97 17968929774158166127
12423570 1 11569882704136084352
12716758 59 17822006506467985939
12897270 3 18333736814141511996
14993402 34 17632573881269454853
15775835 57 17846211193700939430
16945 1 18340496585801181250
18186145 218 12324244979000590935
20201158 50 18411135797112976147
23402539 116 18261941965403221965
23419403 2 13964026946810353644
23552423 10 18113340825013635298
2748010 2 18198339756799244182
29004967 10 18411142471439140441
369184 2 17967534566679585209
5084963 1 18411418375980398624
63268167 104 17916862538221187187

> <PUBCHEM_SHAPE_MULTIPOLES>
235.22
4.52
1.47
1.01
0.28
0.01
-0.03
-1.08
-0.24
-0.08
-0.11
0.28
-0.11
0.31

> <PUBCHEM_SHAPE_SELFOVERLAP>
488.496

> <PUBCHEM_SHAPE_VOLUME>
135.9

> <PUBCHEM_COORDINATE_TYPE>
2
5
10

$$$$
