20843368
  -OEChem-02172602343D

 44 44  0     1  0  0  0  0  0999 V2000
   -0.4508   -1.5067   -0.9966 S   0  0  0  0  0  0  0  0  0  0  0  0
   -2.1062    2.4917   -0.8892 S   0  0  0  0  0  0  0  0  0  0  0  0
    1.1085    0.2837    0.2305 O   0  0  0  0  0  0  0  0  0  0  0  0
    4.6726   -1.1628   -1.2160 O   0  0  0  0  0  0  0  0  0  0  0  0
    4.6527    0.7087    1.0372 O   0  0  0  0  0  0  0  0  0  0  0  0
    2.3552   -2.8795   -1.1521 O   0  0  0  0  0  0  0  0  0  0  0  0
    0.8749    2.2591    2.1238 O   0  0  0  0  0  0  0  0  0  0  0  0
   -1.5394    0.9598   -0.8605 O   0  0  0  0  0  0  0  0  0  0  0  0
   -1.1846    3.2190   -2.0226 O   0  0  0  0  0  0  0  0  0  0  0  0
   -1.8210    3.1159    0.3895 O   0  0  0  0  0  0  0  0  0  0  0  0
   -3.4661    2.4464   -1.3929 O   0  0  0  0  0  0  0  0  0  0  0  0
   -2.1376    0.2035    0.1514 N   0  0  0  0  0  0  0  0  0  0  0  0
    3.6097   -1.0319   -0.2701 C   0  0  1  0  0  0  0  0  0  0  0  0
    3.5302    0.4181    0.2089 C   0  0  1  0  0  0  0  0  0  0  0  0
    2.3109   -1.4664   -0.9566 C   0  0  2  0  0  0  0  0  0  0  0  0
    2.2469    0.6516    1.0103 C   0  0  1  0  0  0  0  0  0  0  0  0
    1.0929   -1.1046   -0.1007 C   0  0  2  0  0  0  0  0  0  0  0  0
    2.0824    2.1177    1.3983 C   0  0  0  0  0  0  0  0  0  0  0  0
   -1.6828   -1.0100    0.1674 C   0  0  0  0  0  0  0  0  0  0  0  0
   -2.1131   -2.1006    1.1353 C   0  0  0  0  0  0  0  0  0  0  0  0
   -3.6104   -2.4402    1.0257 C   0  0  0  0  0  0  0  0  0  0  0  0
   -3.9287   -2.9318   -0.3880 C   0  0  0  0  0  0  0  0  0  0  0  0
   -4.4965   -1.2408    1.3668 C   0  0  0  0  0  0  0  0  0  0  0  0
    3.8545   -1.6987    0.5661 H   0  0  0  0  0  0  0  0  0  0  0  0
    3.5700    1.0927   -0.6557 H   0  0  0  0  0  0  0  0  0  0  0  0
    2.2583   -0.9904   -1.9447 H   0  0  0  0  0  0  0  0  0  0  0  0
    2.2490    0.0522    1.9310 H   0  0  0  0  0  0  0  0  0  0  0  0
    1.0811   -1.6996    0.8210 H   0  0  0  0  0  0  0  0  0  0  0  0
    2.0029    2.7517    0.5094 H   0  0  0  0  0  0  0  0  0  0  0  0
    2.9101    2.4784    2.0162 H   0  0  0  0  0  0  0  0  0  0  0  0
    4.6898   -2.0904   -1.5080 H   0  0  0  0  0  0  0  0  0  0  0  0
    5.4533    0.5254    0.5165 H   0  0  0  0  0  0  0  0  0  0  0  0
    1.5183   -3.1400   -1.5733 H   0  0  0  0  0  0  0  0  0  0  0  0
   -1.8927   -1.7395    2.1475 H   0  0  0  0  0  0  0  0  0  0  0  0
   -1.5194   -3.0103    0.9888 H   0  0  0  0  0  0  0  0  0  0  0  0
   -3.8265   -3.2452    1.7388 H   0  0  0  0  0  0  0  0  0  0  0  0
    0.9494    1.7206    2.9300 H   0  0  0  0  0  0  0  0  0  0  0  0
   -4.9682   -3.2729   -0.4450 H   0  0  0  0  0  0  0  0  0  0  0  0
   -3.2887   -3.7776   -0.6608 H   0  0  0  0  0  0  0  0  0  0  0  0
   -3.8003   -2.1473   -1.1409 H   0  0  0  0  0  0  0  0  0  0  0  0
   -4.1788   -0.7667    2.3011 H   0  0  0  0  0  0  0  0  0  0  0  0
   -4.5138   -0.4852    0.5764 H   0  0  0  0  0  0  0  0  0  0  0  0
   -5.5320   -1.5733    1.5036 H   0  0  0  0  0  0  0  0  0  0  0  0
   -1.0761    2.7160   -2.8637 H   0  0  0  0  0  0  0  0  0  0  0  0
  1 17  1  0  0  0  0
  1 19  1  0  0  0  0
  2  8  1  0  0  0  0
  2  9  1  0  0  0  0
  2 10  2  0  0  0  0
  2 11  2  0  0  0  0
  3 16  1  0  0  0  0
  3 17  1  0  0  0  0
  4 13  1  0  0  0  0
  4 31  1  0  0  0  0
  5 14  1  0  0  0  0
  5 32  1  0  0  0  0
  6 15  1  0  0  0  0
  6 33  1  0  0  0  0
  7 18  1  0  0  0  0
  7 37  1  0  0  0  0
  8 12  1  0  0  0  0
  9 44  1  0  0  0  0
 12 19  2  0  0  0  0
 13 14  1  0  0  0  0
 13 15  1  0  0  0  0
 13 24  1  0  0  0  0
 14 16  1  0  0  0  0
 14 25  1  0  0  0  0
 15 17  1  0  0  0  0
 15 26  1  0  0  0  0
 16 18  1  0  0  0  0
 16 27  1  0  0  0  0
 17 28  1  0  0  0  0
 18 29  1  0  0  0  0
 18 30  1  0  0  0  0
 19 20  1  0  0  0  0
 20 21  1  0  0  0  0
 20 34  1  0  0  0  0
 20 35  1  0  0  0  0
 21 22  1  0  0  0  0
 21 23  1  0  0  0  0
 21 36  1  0  0  0  0
 22 38  1  0  0  0  0
 22 39  1  0  0  0  0
 22 40  1  0  0  0  0
 23 41  1  0  0  0  0
 23 42  1  0  0  0  0
 23 43  1  0  0  0  0
M  END
> <PUBCHEM_COMPOUND_CID>
20843368

> <PUBCHEM_CONFORMER_RMSD>
0.8

> <PUBCHEM_CONFORMER_DIVERSEORDER>
1
20
37
58
79
18
43
41
65
71
34
61
46
68
28
38
52
53
15
48
13
76
57
22
70
60
73
31
23
36
75
49
42
74
51
87
67
8
82
78
81
27
17
10
89
69
62
50
39
63
9
77
80
40
3
19
16
88
35
6
47
32
33
85
29
7
56
84
4
59
83
54
45
2
72
55
24
66
11
26
30
5
44
86
14
25
64
21
12

> <PUBCHEM_MMFF94_PARTIAL_CHARGES>
25
1 -0.37
10 -0.65
11 -0.65
12 -0.51
13 0.28
14 0.28
15 0.28
16 0.28
17 0.51
18 0.28
19 0.53
2 1.67
20 0.06
3 -0.56
31 0.4
32 0.4
33 0.4
37 0.4
4 -0.68
44 0.5
5 -0.68
6 -0.68
7 -0.68
8 -0.12
9 -0.68

> <PUBCHEM_EFFECTIVE_ROTOR_COUNT>
8.2

> <PUBCHEM_PHARMACOPHORE_FEATURES>
16
1 10 acceptor
1 11 acceptor
1 12 acceptor
1 3 acceptor
1 4 acceptor
1 4 donor
1 5 acceptor
1 5 donor
1 6 acceptor
1 6 donor
1 7 acceptor
1 7 donor
1 9 acceptor
3 21 22 23 hydrophobe
4 2 9 10 11 anion
6 3 13 14 15 16 17 rings

> <PUBCHEM_HEAVY_ATOM_COUNT>
23

> <PUBCHEM_ATOM_DEF_STEREO_COUNT>
5

> <PUBCHEM_ATOM_UDEF_STEREO_COUNT>
0

> <PUBCHEM_BOND_DEF_STEREO_COUNT>
1

> <PUBCHEM_BOND_UDEF_STEREO_COUNT>
0

> <PUBCHEM_ISOTOPIC_ATOM_COUNT>
0

> <PUBCHEM_COMPONENT_COUNT>
1

> <PUBCHEM_CACTVS_TAUTO_COUNT>
1

> <PUBCHEM_CONFORMER_ID>
013E0B6800000001

> <PUBCHEM_MMFF94_ENERGY>
47.2912

> <PUBCHEM_FEATURE_SELFOVERLAP>
81.278

> <PUBCHEM_SHAPE_FINGERPRINT>
10165383 225 17612891304551333701
10366900 7 18336271248710942594
1100329 8 17471010281111559435
12403259 226 18341894125468654742
12596599 1 14996290197427467738
12633257 1 17987258701792199715
12788726 201 17894922853220312915
13681431 1 17755032118057540829
14178342 30 17895471428076761614
14790565 3 17329436554255545209
17357779 13 18338785827819188447
1813 80 18117004479905361955
18219364 16 18059564832522926376
19049666 15 18340206267655963986
20600515 1 17314790917575578035
20739085 24 17978508959766554705
21524375 3 17903066734236968559
22182313 1 18130786746722181010
23526113 38 18127681630615475698
23557571 272 18334294287942981119
238 59 17700094873214892924
23845131 108 17687475564174393609
2748010 2 18202557363787821842
3187 122 18115854360308782373
3524813 1 18342455979935864361
5283268 108 18262246641408052545
6049 1 18342174479416209504
6913067 236 18127674131581997530
81228 2 18260276243809847923
9709674 26 18340761546628730078

> <PUBCHEM_SHAPE_MULTIPOLES>
423.22
8.21
4.02
1.63
1.32
2.54
0.1
-4.16
1.29
-2.99
-1.21
-0.08
0.79
2.86

> <PUBCHEM_SHAPE_SELFOVERLAP>
815.392

> <PUBCHEM_SHAPE_VOLUME>
258.6

> <PUBCHEM_COORDINATE_TYPE>
2
5
10

$$$$
