5281263
  -OEChem-02172602473D

 88 94  0     1  0  0  0  0  0999 V2000
    0.9036    0.7629   -2.7800 O   0  0  0  0  0  0  0  0  0  0  0  0
   -1.5179   -1.5256    0.4768 O   0  0  0  0  0  0  0  0  0  0  0  0
    2.3467   -2.5995    1.3488 O   0  0  0  0  0  0  0  0  0  0  0  0
    3.6611    2.3900    0.0889 O   0  0  0  0  0  0  0  0  0  0  0  0
   -3.0532    0.8204   -0.9367 O   0  0  0  0  0  0  0  0  0  0  0  0
   -1.8190    3.6097   -0.9331 O   0  0  0  0  0  0  0  0  0  0  0  0
   -0.8412    0.5656    2.7357 O   0  0  0  0  0  0  0  0  0  0  0  0
   -2.4868    2.7744    1.4713 O   0  0  0  0  0  0  0  0  0  0  0  0
    6.2192    0.4210   -0.5409 O   0  0  0  0  0  0  0  0  0  0  0  0
    4.4218   -3.0366   -1.1340 O   0  0  0  0  0  0  0  0  0  0  0  0
   -0.9200   -1.8726    2.6811 O   0  0  0  0  0  0  0  0  0  0  0  0
   -3.0467   -0.9267   -2.4359 O   0  0  0  0  0  0  0  0  0  0  0  0
    2.8001    0.1159    1.8423 N   0  0  1  0  0  0  0  0  0  0  0  0
    2.0910    0.5451   -0.5879 C   0  0  2  0  0  0  0  0  0  0  0  0
    0.6867    0.9293   -1.3718 C   0  0  2  0  0  0  0  0  0  0  0  0
    2.7068   -0.9770   -0.6582 C   0  0  2  0  0  0  0  0  0  0  0  0
    1.7133    0.4416    0.8952 C   0  0  1  0  0  0  0  0  0  0  0  0
    0.7608   -0.8149    0.7537 C   0  0  1  0  0  0  0  0  0  0  0  0
   -0.6776    0.1760   -1.0602 C   0  0  1  0  0  0  0  0  0  0  0  0
   -0.6951   -0.3472    0.4377 C   0  0  1  0  0  0  0  0  0  0  0  0
    1.7517   -1.9004    0.2836 C   0  0  2  0  0  0  0  0  0  0  0  0
    4.1615   -0.8926   -0.1129 C   0  0  2  0  0  0  0  0  0  0  0  0
    3.1465    1.6345   -0.9994 C   0  0  2  0  0  0  0  0  0  0  0  0
    0.2565    2.4111   -1.0865 C   0  0  0  0  0  0  0  0  0  0  0  0
   -1.2031    2.3832   -0.5687 C   0  0  2  0  0  0  0  0  0  0  0  0
   -1.7625    1.2124   -1.3555 C   0  0  2  0  0  0  0  0  0  0  0  0
   -1.3441    0.6692    1.4040 C   0  0  2  0  0  0  0  0  0  0  0  0
    4.1350   -0.1993    1.3013 C   0  0  0  0  0  0  0  0  0  0  0  0
    5.0252   -0.0921   -1.1368 C   0  0  1  0  0  0  0  0  0  0  0  0
   -1.2919    2.1540    0.9651 C   0  0  2  0  0  0  0  0  0  0  0  0
    4.3031    1.0680   -1.8126 C   0  0  0  0  0  0  0  0  0  0  0  0
    4.8345   -2.2877   -0.0158 C   0  0  0  0  0  0  0  0  0  0  0  0
    2.8490    0.9825    3.0098 C   0  0  0  0  0  0  0  0  0  0  0  0
   -1.5301   -2.1843    1.6673 C   0  0  0  0  0  0  0  0  0  0  0  0
    4.0654    3.6889   -0.3225 C   0  0  0  0  0  0  0  0  0  0  0  0
   -3.5879   -0.2716   -1.5588 C   0  0  0  0  0  0  0  0  0  0  0  0
   -2.3466    3.0957    2.8422 C   0  0  0  0  0  0  0  0  0  0  0  0
   -2.4237   -3.3827    1.5606 C   0  0  0  0  0  0  0  0  0  0  0  0
    4.9887   -4.3453   -1.1404 C   0  0  0  0  0  0  0  0  0  0  0  0
   -4.9417   -0.5777   -1.0316 C   0  0  0  0  0  0  0  0  0  0  0  0
   -5.6599   -1.6601   -1.5403 C   0  0  0  0  0  0  0  0  0  0  0  0
   -5.4953    0.2164   -0.0272 C   0  0  0  0  0  0  0  0  0  0  0  0
   -6.9317   -1.9480   -1.0449 C   0  0  0  0  0  0  0  0  0  0  0  0
   -6.7670   -0.0717    0.4681 C   0  0  0  0  0  0  0  0  0  0  0  0
   -7.4851   -1.1539   -0.0407 C   0  0  0  0  0  0  0  0  0  0  0  0
    2.6598   -1.3332   -1.6936 H   0  0  0  0  0  0  0  0  0  0  0  0
    1.2009    1.3361    1.2392 H   0  0  0  0  0  0  0  0  0  0  0  0
    0.6966   -1.0801    1.8066 H   0  0  0  0  0  0  0  0  0  0  0  0
   -0.7715   -0.6901   -1.7253 H   0  0  0  0  0  0  0  0  0  0  0  0
    1.2311   -2.6225   -0.3548 H   0  0  0  0  0  0  0  0  0  0  0  0
    2.6610    2.3385   -1.6847 H   0  0  0  0  0  0  0  0  0  0  0  0
    0.8917    2.9194   -0.3546 H   0  0  0  0  0  0  0  0  0  0  0  0
    0.3258    3.0040   -2.0086 H   0  0  0  0  0  0  0  0  0  0  0  0
   -1.8081    1.4586   -2.4256 H   0  0  0  0  0  0  0  0  0  0  0  0
   -2.4101    0.4148    1.4973 H   0  0  0  0  0  0  0  0  0  0  0  0
    4.6288   -0.8564    2.0291 H   0  0  0  0  0  0  0  0  0  0  0  0
    4.7506    0.7050    1.3017 H   0  0  0  0  0  0  0  0  0  0  0  0
    5.3614   -0.7621   -1.9391 H   0  0  0  0  0  0  0  0  0  0  0  0
   -0.4417    2.6694    1.4277 H   0  0  0  0  0  0  0  0  0  0  0  0
    3.8767    0.6880   -2.7515 H   0  0  0  0  0  0  0  0  0  0  0  0
    5.0173    1.8447   -2.1026 H   0  0  0  0  0  0  0  0  0  0  0  0
    5.9281   -2.1912   -0.0091 H   0  0  0  0  0  0  0  0  0  0  0  0
    4.5720   -2.8194    0.9029 H   0  0  0  0  0  0  0  0  0  0  0  0
    1.1245   -0.1710   -2.9341 H   0  0  0  0  0  0  0  0  0  0  0  0
    1.6448   -3.0871    1.8124 H   0  0  0  0  0  0  0  0  0  0  0  0
    3.5630    0.6014    3.7481 H   0  0  0  0  0  0  0  0  0  0  0  0
    3.1388    2.0050    2.7471 H   0  0  0  0  0  0  0  0  0  0  0  0
    1.8749    1.0173    3.5092 H   0  0  0  0  0  0  0  0  0  0  0  0
   -1.8141    3.6823   -1.9026 H   0  0  0  0  0  0  0  0  0  0  0  0
   -1.3509   -0.1182    3.2004 H   0  0  0  0  0  0  0  0  0  0  0  0
    6.7681    0.7962   -1.2504 H   0  0  0  0  0  0  0  0  0  0  0  0
    4.3990    4.2299    0.5678 H   0  0  0  0  0  0  0  0  0  0  0  0
    3.2266    4.2434   -0.7552 H   0  0  0  0  0  0  0  0  0  0  0  0
    4.9033    3.6563   -1.0224 H   0  0  0  0  0  0  0  0  0  0  0  0
   -3.1693    3.7666    3.1088 H   0  0  0  0  0  0  0  0  0  0  0  0
   -1.4116    3.6237    3.0543 H   0  0  0  0  0  0  0  0  0  0  0  0
   -2.4460    2.2096    3.4729 H   0  0  0  0  0  0  0  0  0  0  0  0
   -3.4417   -3.0653    1.3205 H   0  0  0  0  0  0  0  0  0  0  0  0
   -2.4398   -3.9093    2.5190 H   0  0  0  0  0  0  0  0  0  0  0  0
   -2.0413   -4.0629    0.7953 H   0  0  0  0  0  0  0  0  0  0  0  0
    4.6334   -4.8678   -2.0325 H   0  0  0  0  0  0  0  0  0  0  0  0
    4.6683   -4.9036   -0.2556 H   0  0  0  0  0  0  0  0  0  0  0  0
    6.0806   -4.2879   -1.1781 H   0  0  0  0  0  0  0  0  0  0  0  0
   -5.2461   -2.2913   -2.3221 H   0  0  0  0  0  0  0  0  0  0  0  0
   -4.9705    1.0673    0.3976 H   0  0  0  0  0  0  0  0  0  0  0  0
   -7.4909   -2.7908   -1.4407 H   0  0  0  0  0  0  0  0  0  0  0  0
   -7.1985    0.5459    1.2505 H   0  0  0  0  0  0  0  0  0  0  0  0
   -8.4752   -1.3783    0.3452 H   0  0  0  0  0  0  0  0  0  0  0  0
  1 15  1  0  0  0  0
  1 64  1  0  0  0  0
  2 20  1  0  0  0  0
  2 34  1  0  0  0  0
  3 21  1  0  0  0  0
  3 65  1  0  0  0  0
  4 23  1  0  0  0  0
  4 35  1  0  0  0  0
  5 26  1  0  0  0  0
  5 36  1  0  0  0  0
  6 25  1  0  0  0  0
  6 69  1  0  0  0  0
  7 27  1  0  0  0  0
  7 70  1  0  0  0  0
  8 30  1  0  0  0  0
  8 37  1  0  0  0  0
  9 29  1  0  0  0  0
  9 71  1  0  0  0  0
 10 32  1  0  0  0  0
 10 39  1  0  0  0  0
 11 34  2  0  0  0  0
 12 36  2  0  0  0  0
 13 17  1  0  0  0  0
 13 28  1  0  0  0  0
 13 33  1  0  0  0  0
 14 15  1  0  0  0  0
 14 16  1  0  0  0  0
 14 17  1  0  0  0  0
 14 23  1  0  0  0  0
 15 19  1  0  0  0  0
 15 24  1  0  0  0  0
 16 21  1  0  0  0  0
 16 22  1  0  0  0  0
 16 46  1  0  0  0  0
 17 18  1  0  0  0  0
 17 47  1  0  0  0  0
 18 20  1  0  0  0  0
 18 21  1  0  0  0  0
 18 48  1  0  0  0  0
 19 20  1  0  0  0  0
 19 26  1  0  0  0  0
 19 49  1  0  0  0  0
 20 27  1  0  0  0  0
 21 50  1  0  0  0  0
 22 28  1  0  0  0  0
 22 29  1  0  0  0  0
 22 32  1  0  0  0  0
 23 31  1  0  0  0  0
 23 51  1  0  0  0  0
 24 25  1  0  0  0  0
 24 52  1  0  0  0  0
 24 53  1  0  0  0  0
 25 26  1  0  0  0  0
 25 30  1  0  0  0  0
 26 54  1  0  0  0  0
 27 30  1  0  0  0  0
 27 55  1  0  0  0  0
 28 56  1  0  0  0  0
 28 57  1  0  0  0  0
 29 31  1  0  0  0  0
 29 58  1  0  0  0  0
 30 59  1  0  0  0  0
 31 60  1  0  0  0  0
 31 61  1  0  0  0  0
 32 62  1  0  0  0  0
 32 63  1  0  0  0  0
 33 66  1  0  0  0  0
 33 67  1  0  0  0  0
 33 68  1  0  0  0  0
 34 38  1  0  0  0  0
 35 72  1  0  0  0  0
 35 73  1  0  0  0  0
 35 74  1  0  0  0  0
 36 40  1  0  0  0  0
 37 75  1  0  0  0  0
 37 76  1  0  0  0  0
 37 77  1  0  0  0  0
 38 78  1  0  0  0  0
 38 79  1  0  0  0  0
 38 80  1  0  0  0  0
 39 81  1  0  0  0  0
 39 82  1  0  0  0  0
 39 83  1  0  0  0  0
 40 41  2  0  0  0  0
 40 42  1  0  0  0  0
 41 43  1  0  0  0  0
 41 84  1  0  0  0  0
 42 44  2  0  0  0  0
 42 85  1  0  0  0  0
 43 45  2  0  0  0  0
 43 86  1  0  0  0  0
 44 45  1  0  0  0  0
 44 87  1  0  0  0  0
 45 88  1  0  0  0  0
M  END
> <PUBCHEM_COMPOUND_CID>
5281263

> <PUBCHEM_CONFORMER_RMSD>
1.2

> <PUBCHEM_CONFORMER_DIVERSEORDER>
1
2
3

> <PUBCHEM_MMFF94_PARTIAL_CHARGES>
48
1 -0.68
10 -0.56
11 -0.57
12 -0.57
13 -0.81
15 0.28
17 0.27
2 -0.43
20 0.28
21 0.28
23 0.28
25 0.28
26 0.28
27 0.28
28 0.27
29 0.28
3 -0.68
30 0.28
32 0.28
33 0.27
34 0.66
35 0.28
36 0.63
37 0.28
38 0.06
39 0.28
4 -0.56
40 0.09
41 -0.15
42 -0.15
43 -0.15
44 -0.15
45 -0.15
5 -0.43
6 -0.68
64 0.4
65 0.4
69 0.4
7 -0.68
70 0.4
71 0.4
8 -0.56
84 0.15
85 0.15
86 0.15
87 0.15
88 0.15
9 -0.68

> <PUBCHEM_EFFECTIVE_ROTOR_COUNT>
11

> <PUBCHEM_PHARMACOPHORE_FEATURES>
21
1 1 acceptor
1 1 donor
1 10 acceptor
1 11 acceptor
1 12 acceptor
1 13 cation
1 3 acceptor
1 3 donor
1 4 acceptor
1 6 acceptor
1 6 donor
1 7 acceptor
1 7 donor
1 8 acceptor
1 9 acceptor
1 9 donor
6 14 16 22 23 29 31 rings
6 40 41 42 43 44 45 rings
8 13 14 16 17 18 21 22 28 rings
8 14 15 16 17 18 19 20 21 rings
8 15 19 20 24 25 26 27 30 rings

> <PUBCHEM_HEAVY_ATOM_COUNT>
45

> <PUBCHEM_ATOM_DEF_STEREO_COUNT>
14

> <PUBCHEM_ATOM_UDEF_STEREO_COUNT>
1

> <PUBCHEM_BOND_DEF_STEREO_COUNT>
0

> <PUBCHEM_BOND_UDEF_STEREO_COUNT>
0

> <PUBCHEM_ISOTOPIC_ATOM_COUNT>
0

> <PUBCHEM_COMPONENT_COUNT>
1

> <PUBCHEM_CACTVS_TAUTO_COUNT>
1

> <PUBCHEM_CONFORMER_ID>
005095EF00000001

> <PUBCHEM_MMFF94_ENERGY>
298.9341

> <PUBCHEM_FEATURE_SELFOVERLAP>
107.767

> <PUBCHEM_SHAPE_FINGERPRINT>
10190108 129 18191602861005708531
11421498 54 18411415086715984187
11578080 2 17902797697464857337
12107698 1 18060419110050422288
12788726 201 18187357719045495309
13533116 47 18410014333975584678
13782708 43 18200309909832901999
13811026 1 18113609071528062630
14068700 675 18410851040649103225
14955137 171 18130783517070337207
15219462 58 18131075943691446378
16090146 7 18188507821045643707
17349148 13 18040990726538941277
18393751 57 17912898846834134000
18603816 31 17482279206382442366
19311894 1 17834394514936286702
19319366 153 16153693349936265859
20775438 99 18190446345750014767
23559900 14 18261955270964173204
244849 19 17839460334800192427
25223398 141 17631730452803767305
469060 322 16486989396242919443
484989 97 17459482219932961883
563151 248 17840889390541362731
57527295 17 18057061137837274070
57527452 28 17489314117841535775
6669772 16 16588857031222462793
70251023 43 18337954493796465174

> <PUBCHEM_SHAPE_MULTIPOLES>
850.67
13.57
3.94
2.48
14.01
0.45
1.17
7.2
-4.43
-2.62
0.4
0.24
-0.44
-0.48

> <PUBCHEM_SHAPE_SELFOVERLAP>
1866.884

> <PUBCHEM_SHAPE_VOLUME>
447.8

> <PUBCHEM_COORDINATE_TYPE>
2
5
10

$$$$
