115243
  -OEChem-02172602473D

 17 18  0     0  0  0  0  0  0999 V2000
   -1.6661   -2.1688    0.0001 F   0  0  0  0  0  0  0  0  0  0  0  0
    1.6374    1.3066    0.0000 N   0  0  0  0  0  0  0  0  0  0  0  0
    0.0136   -0.4741    0.0000 C   0  0  0  0  0  0  0  0  0  0  0  0
    0.3554    0.8945   -0.0001 C   0  0  0  0  0  0  0  0  0  0  0  0
   -1.3351   -0.8687    0.0000 C   0  0  0  0  0  0  0  0  0  0  0  0
    1.0532   -1.4138   -0.0001 C   0  0  0  0  0  0  0  0  0  0  0  0
   -0.6777    1.8276    0.0000 C   0  0  0  0  0  0  0  0  0  0  0  0
   -2.3482    0.0859    0.0000 C   0  0  0  0  0  0  0  0  0  0  0  0
   -2.0186    1.4356    0.0000 C   0  0  0  0  0  0  0  0  0  0  0  0
    2.3751   -0.9923    0.0000 C   0  0  0  0  0  0  0  0  0  0  0  0
    2.6111    0.3676    0.0000 C   0  0  0  0  0  0  0  0  0  0  0  0
    0.8405   -2.4803   -0.0001 H   0  0  0  0  0  0  0  0  0  0  0  0
   -0.4460    2.8912    0.0001 H   0  0  0  0  0  0  0  0  0  0  0  0
   -3.3889   -0.2230    0.0001 H   0  0  0  0  0  0  0  0  0  0  0  0
   -2.8027    2.1872    0.0000 H   0  0  0  0  0  0  0  0  0  0  0  0
    3.1911   -1.7051    0.0000 H   0  0  0  0  0  0  0  0  0  0  0  0
    3.6242    0.7559    0.0001 H   0  0  0  0  0  0  0  0  0  0  0  0
  1  5  1  0  0  0  0
  2  4  1  0  0  0  0
  2 11  2  0  0  0  0
  3  4  2  0  0  0  0
  3  5  1  0  0  0  0
  3  6  1  0  0  0  0
  4  7  1  0  0  0  0
  5  8  2  0  0  0  0
  6 10  2  0  0  0  0
  6 12  1  0  0  0  0
  7  9  2  0  0  0  0
  7 13  1  0  0  0  0
  8  9  1  0  0  0  0
  8 14  1  0  0  0  0
  9 15  1  0  0  0  0
 10 11  1  0  0  0  0
 10 16  1  0  0  0  0
 11 17  1  0  0  0  0
M  END
> <PUBCHEM_COMPOUND_CID>
115243

> <PUBCHEM_CONFORMER_RMSD>
0.4

> <PUBCHEM_CONFORMER_DIVERSEORDER>
1

> <PUBCHEM_MMFF94_PARTIAL_CHARGES>
16
1 -0.19
10 -0.15
11 0.16
12 0.15
13 0.15
14 0.15
15 0.15
16 0.15
17 0.15
2 -0.62
4 0.31
5 0.19
6 -0.15
7 -0.15
8 -0.15
9 -0.15

> <PUBCHEM_EFFECTIVE_ROTOR_COUNT>
0

> <PUBCHEM_PHARMACOPHORE_FEATURES>
3
1 2 acceptor
6 2 3 4 6 10 11 rings
6 3 4 5 7 8 9 rings

> <PUBCHEM_HEAVY_ATOM_COUNT>
11

> <PUBCHEM_ATOM_DEF_STEREO_COUNT>
0

> <PUBCHEM_ATOM_UDEF_STEREO_COUNT>
0

> <PUBCHEM_BOND_DEF_STEREO_COUNT>
0

> <PUBCHEM_BOND_UDEF_STEREO_COUNT>
0

> <PUBCHEM_ISOTOPIC_ATOM_COUNT>
0

> <PUBCHEM_COMPONENT_COUNT>
1

> <PUBCHEM_CACTVS_TAUTO_COUNT>
1

> <PUBCHEM_CONFORMER_ID>
0001C22B00000001

> <PUBCHEM_MMFF94_ENERGY>
29.0095

> <PUBCHEM_FEATURE_SELFOVERLAP>
15.254

> <PUBCHEM_SHAPE_FINGERPRINT>
12423570 1 16023635714474352757
12524768 44 18340772541750340863
12897270 3 18411138073440004588
16945 1 18410575058983062852
18185500 45 18338799042953535991
193761 8 15528271726994310528
19973954 147 18410577296755911156
20871998 184 18201440306712616559
21040471 1 18266459815114862624
23552423 10 18260832639242229340
23559900 14 18199193889574426998
241688 4 18265894842247591561
2748010 2 18194963165175003916
369184 2 18410008793230460584
5084963 1 17986383387119319833
528886 8 18411414016377518714
66348 1 18411135878558754926

> <PUBCHEM_SHAPE_MULTIPOLES>
214.12
3.44
1.98
0.6
0.71
0.3
0
-0.09
0
-0.5
0
0
-0.01
0

> <PUBCHEM_SHAPE_SELFOVERLAP>
474.259

> <PUBCHEM_SHAPE_VOLUME>
115.1

> <PUBCHEM_COORDINATE_TYPE>
2
5
10

$$$$
