10922464
  -OEChem-02172602303D

 39 40  0     1  0  0  0  0  0999 V2000
   -3.5392    0.6908    1.4907 O   0  0  0  0  0  0  0  0  0  0  0  0
   -4.7738   -0.8210    0.3284 O   0  0  0  0  0  0  0  0  0  0  0  0
    1.6389    1.0346   -0.1562 C   0  0  1  0  0  0  0  0  0  0  0  0
    1.2596   -0.4561   -0.2046 C   0  0  0  0  0  0  0  0  0  0  0  0
    0.5289    1.8376    0.5750 C   0  0  0  0  0  0  0  0  0  0  0  0
    2.9597    1.2774    0.6236 C   0  0  0  0  0  0  0  0  0  0  0  0
   -1.2010    0.0629    0.0865 C   0  0  1  0  0  0  0  0  0  0  0  0
   -0.1493   -0.7203   -0.7122 C   0  0  0  0  0  0  0  0  0  0  0  0
   -0.8858    1.5632    0.0640 C   0  0  0  0  0  0  0  0  0  0  0  0
    4.0312    0.2628    0.2611 C   0  0  0  0  0  0  0  0  0  0  0  0
    2.1216   -1.4339    0.1660 C   0  0  0  0  0  0  0  0  0  0  0  0
    1.8133    1.5696   -1.5971 C   0  0  0  0  0  0  0  0  0  0  0  0
    3.5489   -1.1455    0.5820 C   0  0  0  0  0  0  0  0  0  0  0  0
   -2.5796   -0.1944   -0.4465 C   0  0  0  0  0  0  0  0  0  0  0  0
    1.7926   -2.9046    0.2140 C   0  0  0  0  0  0  0  0  0  0  0  0
   -3.7509   -0.1681    0.4658 C   0  0  0  0  0  0  0  0  0  0  0  0
   -2.8150   -0.4551   -1.7404 C   0  0  0  0  0  0  0  0  0  0  0  0
    0.7331    2.9135    0.5005 H   0  0  0  0  0  0  0  0  0  0  0  0
    0.5463    1.5963    1.6470 H   0  0  0  0  0  0  0  0  0  0  0  0
    2.7802    1.2123    1.7056 H   0  0  0  0  0  0  0  0  0  0  0  0
    3.3345    2.2918    0.4383 H   0  0  0  0  0  0  0  0  0  0  0  0
   -1.1531   -0.2946    1.1250 H   0  0  0  0  0  0  0  0  0  0  0  0
   -0.1406   -0.4310   -1.7691 H   0  0  0  0  0  0  0  0  0  0  0  0
   -0.4053   -1.7831   -0.7049 H   0  0  0  0  0  0  0  0  0  0  0  0
   -1.5926    2.1204    0.6898 H   0  0  0  0  0  0  0  0  0  0  0  0
   -0.9977    1.9663   -0.9503 H   0  0  0  0  0  0  0  0  0  0  0  0
    4.9503    0.4720    0.8206 H   0  0  0  0  0  0  0  0  0  0  0  0
    4.2894    0.3389   -0.8012 H   0  0  0  0  0  0  0  0  0  0  0  0
    2.1432    2.6150   -1.5893 H   0  0  0  0  0  0  0  0  0  0  0  0
    2.5576    0.9917   -2.1559 H   0  0  0  0  0  0  0  0  0  0  0  0
    0.8849    1.5349   -2.1753 H   0  0  0  0  0  0  0  0  0  0  0  0
    3.6314   -1.3162    1.6632 H   0  0  0  0  0  0  0  0  0  0  0  0
    4.2266   -1.8575    0.0947 H   0  0  0  0  0  0  0  0  0  0  0  0
    0.7251   -3.1149    0.2997 H   0  0  0  0  0  0  0  0  0  0  0  0
    2.2566   -3.3664    1.0931 H   0  0  0  0  0  0  0  0  0  0  0  0
    2.1806   -3.4062   -0.6781 H   0  0  0  0  0  0  0  0  0  0  0  0
   -2.0502   -0.4763   -2.5052 H   0  0  0  0  0  0  0  0  0  0  0  0
   -3.8243   -0.6362   -2.1001 H   0  0  0  0  0  0  0  0  0  0  0  0
   -4.3024    0.7239    2.1060 H   0  0  0  0  0  0  0  0  0  0  0  0
  1 16  1  0  0  0  0
  1 39  1  0  0  0  0
  2 16  2  0  0  0  0
  3  4  1  0  0  0  0
  3  5  1  0  0  0  0
  3  6  1  0  0  0  0
  3 12  1  0  0  0  0
  4  8  1  0  0  0  0
  4 11  2  0  0  0  0
  5  9  1  0  0  0  0
  5 18  1  0  0  0  0
  5 19  1  0  0  0  0
  6 10  1  0  0  0  0
  6 20  1  0  0  0  0
  6 21  1  0  0  0  0
  7  8  1  0  0  0  0
  7  9  1  0  0  0  0
  7 14  1  0  0  0  0
  7 22  1  0  0  0  0
  8 23  1  0  0  0  0
  8 24  1  0  0  0  0
  9 25  1  0  0  0  0
  9 26  1  0  0  0  0
 10 13  1  0  0  0  0
 10 27  1  0  0  0  0
 10 28  1  0  0  0  0
 11 13  1  0  0  0  0
 11 15  1  0  0  0  0
 12 29  1  0  0  0  0
 12 30  1  0  0  0  0
 12 31  1  0  0  0  0
 13 32  1  0  0  0  0
 13 33  1  0  0  0  0
 14 16  1  0  0  0  0
 14 17  2  0  0  0  0
 15 34  1  0  0  0  0
 15 35  1  0  0  0  0
 15 36  1  0  0  0  0
 17 37  1  0  0  0  0
 17 38  1  0  0  0  0
M  END
> <PUBCHEM_COMPOUND_CID>
10922464

> <PUBCHEM_CONFORMER_RMSD>
0.6

> <PUBCHEM_CONFORMER_DIVERSEORDER>
3
11
10
7
9
4
8
5
12
1
6
2

> <PUBCHEM_MMFF94_PARTIAL_CHARGES>
15
1 -0.65
11 -0.28
13 0.14
14 -0.12
15 0.14
16 0.71
17 -0.3
2 -0.57
3 0.14
37 0.15
38 0.15
39 0.5
4 -0.28
7 0.14
8 0.14

> <PUBCHEM_EFFECTIVE_ROTOR_COUNT>
3.4

> <PUBCHEM_PHARMACOPHORE_FEATURES>
6
1 1 acceptor
1 17 hydrophobe
1 2 acceptor
3 1 2 16 anion
6 3 4 5 7 8 9 rings
6 3 4 6 10 11 13 rings

> <PUBCHEM_HEAVY_ATOM_COUNT>
17

> <PUBCHEM_ATOM_DEF_STEREO_COUNT>
2

> <PUBCHEM_ATOM_UDEF_STEREO_COUNT>
0

> <PUBCHEM_BOND_DEF_STEREO_COUNT>
0

> <PUBCHEM_BOND_UDEF_STEREO_COUNT>
0

> <PUBCHEM_ISOTOPIC_ATOM_COUNT>
0

> <PUBCHEM_COMPONENT_COUNT>
1

> <PUBCHEM_CACTVS_TAUTO_COUNT>
1

> <PUBCHEM_CONFORMER_ID>
00A6A9E000000003

> <PUBCHEM_MMFF94_ENERGY>
36.2348

> <PUBCHEM_FEATURE_SELFOVERLAP>
30.524

> <PUBCHEM_SHAPE_FINGERPRINT>
10618630 7 18335984177217135112
10980938 120 18412547617118557378
11086676 242 18270965643809108976
11471102 20 18409724075558664276
12236239 1 17846214475609912991
12251169 10 18131350812934641023
12553582 1 18342166752738512414
13140716 1 18266733774194302178
13296908 3 17822285752029667735
13675066 3 18411134736408924441
13705890 14 17458061547640378896
14251717 144 18410290328336947258
14252887 29 17988652877961566446
14787075 74 17987222504087423016
15375462 189 18273490173972191731
15501101 241 18409441467232885380
15653759 3 17313097545098751933
15775835 57 18059856198693333440
16945 1 18410844465465649196
1813 80 18263373495188129326
19786989 88 17677339453411923741
200 152 18271231794949032679
20559304 39 18341617001177283164
20645477 70 18336812105473555527
21267235 1 18413113844427742966
22112679 90 17560505296362795693
22445834 79 18271804588345133883
2255824 54 18336834190137115692
22854114 111 18341333378780351465
23388829 49 18341887463958093308
23402539 116 16845567638931746732
23463225 33 18413389817282140221
23557571 272 14476957917909570143
26918003 58 18187361026048584907
2748010 2 18051401869378070438
474 4 18055062422528345592
53655031 270 18344144787242184944
633830 44 18201164363854295276
7364860 26 18273217456871933374
77492 1 17917704725441735519
83771 10 18336826403250469208

> <PUBCHEM_SHAPE_MULTIPOLES>
338.11
7.24
2.11
1.18
5.07
0.75
-0.34
1.32
1.53
-1.72
0.09
0.62
-0.26
-0.51

> <PUBCHEM_SHAPE_SELFOVERLAP>
700.218

> <PUBCHEM_SHAPE_VOLUME>
191.6

> <PUBCHEM_COORDINATE_TYPE>
2
5
10

$$$$
