42608117
  -OEChem-02172602233D

 33 35  0     1  0  0  0  0  0999 V2000
   -0.0121   -0.6475   -0.1368 O   0  0  0  0  0  0  0  0  0  0  0  0
    1.5980    3.1254   -0.0946 O   0  0  0  0  0  0  0  0  0  0  0  0
    3.9849    2.1028    0.1025 O   0  0  0  0  0  0  0  0  0  0  0  0
    1.5510   -2.8499   -0.1152 O   0  0  0  0  0  0  0  0  0  0  0  0
    4.3027   -2.6265    0.0336 O   0  0  0  0  0  0  0  0  0  0  0  0
   -6.2804   -0.6184   -0.2274 O   0  0  0  0  0  0  0  0  0  0  0  0
   -0.7544    0.4611    0.3948 C   0  0  1  0  0  0  0  0  0  0  0  0
   -0.3666    1.7644   -0.3013 C   0  0  0  0  0  0  0  0  0  0  0  0
    1.9527    0.7925   -0.0244 C   0  0  0  0  0  0  0  0  0  0  0  0
   -2.2314    0.1723    0.2289 C   0  0  0  0  0  0  0  0  0  0  0  0
    1.1093    2.0021   -0.1134 C   0  0  0  0  0  0  0  0  0  0  0  0
    1.3447   -0.4657   -0.0638 C   0  0  0  0  0  0  0  0  0  0  0  0
    3.3433    0.9022    0.0542 C   0  0  0  0  0  0  0  0  0  0  0  0
    2.1328   -1.6174   -0.0587 C   0  0  0  0  0  0  0  0  0  0  0  0
   -3.0472    0.0394    1.3527 C   0  0  0  0  0  0  0  0  0  0  0  0
   -2.7764    0.0393   -1.0482 C   0  0  0  0  0  0  0  0  0  0  0  0
    3.5217   -1.5099    0.0180 C   0  0  0  0  0  0  0  0  0  0  0  0
    4.1249   -0.2533    0.0792 C   0  0  0  0  0  0  0  0  0  0  0  0
   -4.4078   -0.2265    1.1993 C   0  0  0  0  0  0  0  0  0  0  0  0
   -4.1371   -0.2268   -1.2016 C   0  0  0  0  0  0  0  0  0  0  0  0
   -4.9527   -0.3597   -0.0778 C   0  0  0  0  0  0  0  0  0  0  0  0
   -0.5238    0.5325    1.4681 H   0  0  0  0  0  0  0  0  0  0  0  0
   -0.9192    2.6063    0.1304 H   0  0  0  0  0  0  0  0  0  0  0  0
   -0.5478    1.7376   -1.3817 H   0  0  0  0  0  0  0  0  0  0  0  0
   -2.6375    0.1404    2.3541 H   0  0  0  0  0  0  0  0  0  0  0  0
   -2.1560    0.1276   -1.9358 H   0  0  0  0  0  0  0  0  0  0  0  0
    5.2075   -0.1677    0.1395 H   0  0  0  0  0  0  0  0  0  0  0  0
   -5.0382   -0.3288    2.0784 H   0  0  0  0  0  0  0  0  0  0  0  0
   -4.5490   -0.3307   -2.2017 H   0  0  0  0  0  0  0  0  0  0  0  0
    3.3444    2.8290    0.1494 H   0  0  0  0  0  0  0  0  0  0  0  0
    2.2538   -3.5226   -0.0979 H   0  0  0  0  0  0  0  0  0  0  0  0
    5.2365   -2.3601    0.0895 H   0  0  0  0  0  0  0  0  0  0  0  0
   -6.4848   -0.6783   -1.1765 H   0  0  0  0  0  0  0  0  0  0  0  0
  1  7  1  0  0  0  0
  1 12  1  0  0  0  0
  2 11  2  0  0  0  0
  3 13  1  0  0  0  0
  3 30  1  0  0  0  0
  4 14  1  0  0  0  0
  4 31  1  0  0  0  0
  5 17  1  0  0  0  0
  5 32  1  0  0  0  0
  6 21  1  0  0  0  0
  6 33  1  0  0  0  0
  7  8  1  0  0  0  0
  7 10  1  0  0  0  0
  7 22  1  0  0  0  0
  8 11  1  0  0  0  0
  8 23  1  0  0  0  0
  8 24  1  0  0  0  0
  9 11  1  0  0  0  0
  9 12  2  0  0  0  0
  9 13  1  0  0  0  0
 10 15  2  0  0  0  0
 10 16  1  0  0  0  0
 12 14  1  0  0  0  0
 13 18  2  0  0  0  0
 14 17  2  0  0  0  0
 15 19  1  0  0  0  0
 15 25  1  0  0  0  0
 16 20  2  0  0  0  0
 16 26  1  0  0  0  0
 17 18  1  0  0  0  0
 18 27  1  0  0  0  0
 19 21  2  0  0  0  0
 19 28  1  0  0  0  0
 20 21  1  0  0  0  0
 20 29  1  0  0  0  0
M  END
> <PUBCHEM_COMPOUND_CID>
42608117

> <PUBCHEM_CONFORMER_RMSD>
0.6

> <PUBCHEM_CONFORMER_DIVERSEORDER>
1
3
2
4

> <PUBCHEM_MMFF94_PARTIAL_CHARGES>
30
1 -0.36
10 -0.14
11 0.42
12 0.08
13 0.08
14 0.08
15 -0.15
16 -0.15
17 0.08
18 -0.15
19 -0.15
2 -0.57
20 -0.15
21 0.08
25 0.15
26 0.15
27 0.15
28 0.15
29 0.15
3 -0.53
30 0.45
31 0.45
32 0.45
33 0.45
4 -0.53
5 -0.53
6 -0.53
7 0.42
8 0.06
9 0.09

> <PUBCHEM_EFFECTIVE_ROTOR_COUNT>
1.6

> <PUBCHEM_PHARMACOPHORE_FEATURES>
9
1 1 acceptor
1 2 acceptor
1 3 donor
1 4 donor
1 5 donor
1 6 donor
6 1 7 8 9 11 12 rings
6 10 15 16 19 20 21 rings
6 9 12 13 14 17 18 rings

> <PUBCHEM_HEAVY_ATOM_COUNT>
21

> <PUBCHEM_ATOM_DEF_STEREO_COUNT>
1

> <PUBCHEM_ATOM_UDEF_STEREO_COUNT>
0

> <PUBCHEM_BOND_DEF_STEREO_COUNT>
0

> <PUBCHEM_BOND_UDEF_STEREO_COUNT>
0

> <PUBCHEM_ISOTOPIC_ATOM_COUNT>
0

> <PUBCHEM_COMPONENT_COUNT>
1

> <PUBCHEM_CACTVS_TAUTO_COUNT>
76

> <PUBCHEM_CONFORMER_ID>
028A25F500000001

> <PUBCHEM_MMFF94_ENERGY>
60.3729

> <PUBCHEM_FEATURE_SELFOVERLAP>
45.707

> <PUBCHEM_SHAPE_FINGERPRINT>
10411042 1 18194401096471139126
10967382 1 18410574007264584596
11471102 20 18409449214842327248
11796584 16 16443343148375784738
12107183 9 17839474284721997057
12236239 1 17846501452592665065
12553582 1 18339925909476303926
12596602 18 17274820285487424891
12670546 56 17846779611580693769
13134695 92 18410571794808346908
13140716 1 18051128391709995472
13167823 11 18202565077391063775
13533116 47 18272369797978808835
13544653 18 18335143050827089877
13862211 1 18338234856804446578
14251717 144 18411698798616268686
14386348 63 17821449075674133971
14790565 3 17976267060212190036
15196674 1 18410292467235954861
15375358 24 18113619010324907281
15375462 189 18060419118582042353
15848702 151 18411420592457738935
15961568 22 16298675000546082980
16945 1 18410295847765600396
17357779 13 18114170917928382693
17818456 19 17415014456396163385
1813 80 18200606790946331332
18222031 100 18342175527441223990
200 152 18272084990123306993
20028762 73 18202278074465344502
20645477 70 18334571352004122499
21065198 48 18131077017512521241
21065201 7 16515682234686154443
21267235 1 18341056233257418766
21285901 2 17821723914662726261
21641784 216 17969523540813900916
221357 26 18261384530209089557
221490 88 18335981952819727804
22182313 1 18263062367615145804
22224240 67 18199457939489133064
2255824 54 18341618165092516372
23559900 14 17313109652358455546
2748010 2 18265321825413437988
2871803 45 18187365385324495074
33824 294 18409165532668917626
34797466 226 16443358584456610535
42630746 31 18341611551164510356
46194498 28 17749106746747981725
474 4 18268993270162412649
5104073 3 18411136888008309433
5281201 14 18040434382482695933
602551 16 15123499363455046597
7970288 3 18266457607381438043
8272917 22 18412267250459771637
9709674 26 18260832626647490891

> <PUBCHEM_SHAPE_MULTIPOLES>
396.95
10.54
2.44
0.91
10.03
0.22
-0.06
-3.29
-0.06
-3.85
0.12
1.11
-0.02
-0.01

> <PUBCHEM_SHAPE_SELFOVERLAP>
883.402

> <PUBCHEM_SHAPE_VOLUME>
210.2

> <PUBCHEM_COORDINATE_TYPE>
2
5
10

$$$$
