11059955
  -OEChem-02172602473D

 84 89  0     1  0  0  0  0  0999 V2000
    1.4464    1.0977    1.0505 O   0  0  0  0  0  0  0  0  0  0  0  0
   -8.2220    1.1177    1.0824 O   0  0  0  0  0  0  0  0  0  0  0  0
    2.7909   -1.9484   -1.9628 O   0  0  0  0  0  0  0  0  0  0  0  0
    3.4470   -0.3172   -0.3956 N   0  0  0  0  0  0  0  0  0  0  0  0
   -1.7171    0.7045   -0.7064 C   0  0  2  0  0  0  0  0  0  0  0  0
   -3.1252    0.7488   -0.0041 C   0  0  2  0  0  0  0  0  0  0  0  0
   -3.8495   -0.6379   -0.0622 C   0  0  2  0  0  0  0  0  0  0  0  0
   -5.1796   -0.5115    0.6861 C   0  0  1  0  0  0  0  0  0  0  0  0
   -0.8908   -0.4296   -0.0205 C   0  0  1  0  0  0  0  0  0  0  0  0
   -6.1033    0.5389    0.0357 C   0  0  2  0  0  0  0  0  0  0  0  0
   -4.0433    1.9105   -0.4736 C   0  0  0  0  0  0  0  0  0  0  0  0
   -2.9708   -1.7506    0.5249 C   0  0  0  0  0  0  0  0  0  0  0  0
   -1.5836   -1.7947   -0.1121 C   0  0  0  0  0  0  0  0  0  0  0  0
   -0.9543    2.0407   -0.4879 C   0  0  0  0  0  0  0  0  0  0  0  0
   -5.4366    1.9028    0.1834 C   0  0  0  0  0  0  0  0  0  0  0  0
    0.5605   -0.5046   -0.5274 C   0  0  0  0  0  0  0  0  0  0  0  0
   -6.0722   -1.7348    0.8643 C   0  0  0  0  0  0  0  0  0  0  0  0
    1.2970    0.8338   -0.3491 C   0  0  1  0  0  0  0  0  0  0  0  0
    0.5064    1.9991   -0.9578 C   0  0  0  0  0  0  0  0  0  0  0  0
   -1.8707    0.4723   -2.2317 C   0  0  0  0  0  0  0  0  0  0  0  0
   -7.3413    0.2926    0.8789 C   0  0  0  0  0  0  0  0  0  0  0  0
   -7.3710   -1.1285    1.4163 C   0  0  0  0  0  0  0  0  0  0  0  0
   -6.5072    0.2690   -1.4256 C   0  0  0  0  0  0  0  0  0  0  0  0
    2.6988    0.7640   -0.9584 C   0  0  0  0  0  0  0  0  0  0  0  0
    4.2403   -0.0148    0.8041 C   0  0  0  0  0  0  0  0  0  0  0  0
    3.4247   -1.6135   -0.9653 C   0  0  0  0  0  0  0  0  0  0  0  0
    4.2520   -2.6537   -0.2808 C   0  0  0  0  0  0  0  0  0  0  0  0
    5.6521    0.4416    0.4411 C   0  0  0  0  0  0  0  0  0  0  0  0
    3.8761   -4.0989   -0.4289 C   0  0  0  0  0  0  0  0  0  0  0  0
    3.6701   -3.4006    0.8833 C   0  0  0  0  0  0  0  0  0  0  0  0
    6.6160    0.2046    1.6115 C   0  0  0  0  0  0  0  0  0  0  0  0
    5.6535    1.9181    0.0225 C   0  0  0  0  0  0  0  0  0  0  0  0
    8.0238    0.7023    1.2920 C   0  0  0  0  0  0  0  0  0  0  0  0
    7.0629    2.4128   -0.2946 C   0  0  0  0  0  0  0  0  0  0  0  0
    8.0201    2.1677    0.8678 C   0  0  0  0  0  0  0  0  0  0  0  0
   -2.9314    0.9505    1.0618 H   0  0  0  0  0  0  0  0  0  0  0  0
   -4.0555   -0.9044   -1.1038 H   0  0  0  0  0  0  0  0  0  0  0  0
   -4.9342   -0.1769    1.7092 H   0  0  0  0  0  0  0  0  0  0  0  0
   -0.8323   -0.1887    1.0523 H   0  0  0  0  0  0  0  0  0  0  0  0
   -3.5732    2.8730   -0.2431 H   0  0  0  0  0  0  0  0  0  0  0  0
   -4.1672    1.8801   -1.5605 H   0  0  0  0  0  0  0  0  0  0  0  0
   -2.8625   -1.6052    1.6074 H   0  0  0  0  0  0  0  0  0  0  0  0
   -3.4541   -2.7247    0.3854 H   0  0  0  0  0  0  0  0  0  0  0  0
   -1.6598   -2.1243   -1.1545 H   0  0  0  0  0  0  0  0  0  0  0  0
   -0.9841   -2.5520    0.4080 H   0  0  0  0  0  0  0  0  0  0  0  0
   -1.4552    2.8601   -1.0168 H   0  0  0  0  0  0  0  0  0  0  0  0
   -0.9737    2.3036    0.5779 H   0  0  0  0  0  0  0  0  0  0  0  0
   -5.3374    2.1636    1.2452 H   0  0  0  0  0  0  0  0  0  0  0  0
   -6.0583    2.6890   -0.2619 H   0  0  0  0  0  0  0  0  0  0  0  0
    1.0492   -1.2860    0.0659 H   0  0  0  0  0  0  0  0  0  0  0  0
    0.5688   -0.8189   -1.5760 H   0  0  0  0  0  0  0  0  0  0  0  0
   -5.6522   -2.4646    1.5633 H   0  0  0  0  0  0  0  0  0  0  0  0
   -6.2499   -2.2482   -0.0869 H   0  0  0  0  0  0  0  0  0  0  0  0
    0.5347    1.9425   -2.0523 H   0  0  0  0  0  0  0  0  0  0  0  0
    0.9735    2.9545   -0.6855 H   0  0  0  0  0  0  0  0  0  0  0  0
   -2.4594   -0.4176   -2.4667 H   0  0  0  0  0  0  0  0  0  0  0  0
   -2.3613    1.3237   -2.7149 H   0  0  0  0  0  0  0  0  0  0  0  0
   -0.9075    0.3473   -2.7341 H   0  0  0  0  0  0  0  0  0  0  0  0
   -7.3553   -1.0931    2.5094 H   0  0  0  0  0  0  0  0  0  0  0  0
   -8.2508   -1.6661    1.0563 H   0  0  0  0  0  0  0  0  0  0  0  0
   -7.1872    1.0529   -1.7809 H   0  0  0  0  0  0  0  0  0  0  0  0
   -7.0430   -0.6791   -1.5429 H   0  0  0  0  0  0  0  0  0  0  0  0
   -5.6521    0.2481   -2.1063 H   0  0  0  0  0  0  0  0  0  0  0  0
    2.6277    0.6172   -2.0429 H   0  0  0  0  0  0  0  0  0  0  0  0
    3.1945    1.7169   -0.7864 H   0  0  0  0  0  0  0  0  0  0  0  0
    1.8483    1.9774    1.1525 H   0  0  0  0  0  0  0  0  0  0  0  0
    3.7424    0.7450    1.4121 H   0  0  0  0  0  0  0  0  0  0  0  0
    4.2855   -0.9049    1.4362 H   0  0  0  0  0  0  0  0  0  0  0  0
    5.3194   -2.4557   -0.2663 H   0  0  0  0  0  0  0  0  0  0  0  0
    6.0179   -0.1495   -0.4095 H   0  0  0  0  0  0  0  0  0  0  0  0
    2.9913   -4.3681   -0.9924 H   0  0  0  0  0  0  0  0  0  0  0  0
    4.6782   -4.8247   -0.4916 H   0  0  0  0  0  0  0  0  0  0  0  0
    4.3333   -3.6553    1.7008 H   0  0  0  0  0  0  0  0  0  0  0  0
    2.6520   -3.1842    1.1833 H   0  0  0  0  0  0  0  0  0  0  0  0
    6.2458    0.7176    2.5084 H   0  0  0  0  0  0  0  0  0  0  0  0
    6.6598   -0.8646    1.8512 H   0  0  0  0  0  0  0  0  0  0  0  0
    5.2084    2.5449    0.8045 H   0  0  0  0  0  0  0  0  0  0  0  0
    5.0850    2.0660   -0.8965 H   0  0  0  0  0  0  0  0  0  0  0  0
    8.6676    0.5745    2.1696 H   0  0  0  0  0  0  0  0  0  0  0  0
    8.4533    0.0907    0.4889 H   0  0  0  0  0  0  0  0  0  0  0  0
    7.0347    3.4829   -0.5293 H   0  0  0  0  0  0  0  0  0  0  0  0
    7.4384    1.8999   -1.1889 H   0  0  0  0  0  0  0  0  0  0  0  0
    7.7267    2.7933    1.7197 H   0  0  0  0  0  0  0  0  0  0  0  0
    9.0334    2.4718    0.5819 H   0  0  0  0  0  0  0  0  0  0  0  0
  1 18  1  0  0  0  0
  1 66  1  0  0  0  0
  2 21  2  0  0  0  0
  3 26  2  0  0  0  0
  4 24  1  0  0  0  0
  4 25  1  0  0  0  0
  4 26  1  0  0  0  0
  5  6  1  0  0  0  0
  5  9  1  0  0  0  0
  5 14  1  0  0  0  0
  5 20  1  0  0  0  0
  6  7  1  0  0  0  0
  6 11  1  0  0  0  0
  6 36  1  0  0  0  0
  7  8  1  0  0  0  0
  7 12  1  0  0  0  0
  7 37  1  0  0  0  0
  8 10  1  0  0  0  0
  8 17  1  0  0  0  0
  8 38  1  0  0  0  0
  9 13  1  0  0  0  0
  9 16  1  0  0  0  0
  9 39  1  0  0  0  0
 10 15  1  0  0  0  0
 10 21  1  0  0  0  0
 10 23  1  0  0  0  0
 11 15  1  0  0  0  0
 11 40  1  0  0  0  0
 11 41  1  0  0  0  0
 12 13  1  0  0  0  0
 12 42  1  0  0  0  0
 12 43  1  0  0  0  0
 13 44  1  0  0  0  0
 13 45  1  0  0  0  0
 14 19  1  0  0  0  0
 14 46  1  0  0  0  0
 14 47  1  0  0  0  0
 15 48  1  0  0  0  0
 15 49  1  0  0  0  0
 16 18  1  0  0  0  0
 16 50  1  0  0  0  0
 16 51  1  0  0  0  0
 17 22  1  0  0  0  0
 17 52  1  0  0  0  0
 17 53  1  0  0  0  0
 18 19  1  0  0  0  0
 18 24  1  0  0  0  0
 19 54  1  0  0  0  0
 19 55  1  0  0  0  0
 20 56  1  0  0  0  0
 20 57  1  0  0  0  0
 20 58  1  0  0  0  0
 21 22  1  0  0  0  0
 22 59  1  0  0  0  0
 22 60  1  0  0  0  0
 23 61  1  0  0  0  0
 23 62  1  0  0  0  0
 23 63  1  0  0  0  0
 24 64  1  0  0  0  0
 24 65  1  0  0  0  0
 25 28  1  0  0  0  0
 25 67  1  0  0  0  0
 25 68  1  0  0  0  0
 26 27  1  0  0  0  0
 27 29  1  0  0  0  0
 27 30  1  0  0  0  0
 27 69  1  0  0  0  0
 28 31  1  0  0  0  0
 28 32  1  0  0  0  0
 28 70  1  0  0  0  0
 29 30  1  0  0  0  0
 29 71  1  0  0  0  0
 29 72  1  0  0  0  0
 30 73  1  0  0  0  0
 30 74  1  0  0  0  0
 31 33  1  0  0  0  0
 31 75  1  0  0  0  0
 31 76  1  0  0  0  0
 32 34  1  0  0  0  0
 32 77  1  0  0  0  0
 32 78  1  0  0  0  0
 33 35  1  0  0  0  0
 33 79  1  0  0  0  0
 33 80  1  0  0  0  0
 34 35  1  0  0  0  0
 34 81  1  0  0  0  0
 34 82  1  0  0  0  0
 35 83  1  0  0  0  0
 35 84  1  0  0  0  0
M  END
> <PUBCHEM_COMPOUND_CID>
11059955

> <PUBCHEM_CONFORMER_RMSD>
1

> <PUBCHEM_CONFORMER_DIVERSEORDER>
1
29
11
25
37
4
14
9
15
38
24
34
5
36
40
18
6
16
26
32
35
27
22
30
39
20
3
8
31
19
33
13
28
21
23
7
17
12
2
10

> <PUBCHEM_MMFF94_PARTIAL_CHARGES>
20
1 -0.68
10 0.06
18 0.28
2 -0.57
21 0.45
22 0.06
24 0.3
25 0.3
26 0.63
27 -0.1
29 -0.2
3 -0.57
30 -0.2
4 -0.66
66 0.4
69 0.1
71 0.1
72 0.1
73 0.1
74 0.1

> <PUBCHEM_EFFECTIVE_ROTOR_COUNT>
9.8

> <PUBCHEM_PHARMACOPHORE_FEATURES>
9
1 1 acceptor
1 1 donor
1 2 acceptor
1 3 acceptor
5 8 10 17 21 22 rings
6 28 31 32 33 34 35 rings
6 5 6 7 9 12 13 rings
6 5 9 14 16 18 19 rings
6 6 7 8 10 11 15 rings

> <PUBCHEM_HEAVY_ATOM_COUNT>
35

> <PUBCHEM_ATOM_DEF_STEREO_COUNT>
7

> <PUBCHEM_ATOM_UDEF_STEREO_COUNT>
0

> <PUBCHEM_BOND_DEF_STEREO_COUNT>
0

> <PUBCHEM_BOND_UDEF_STEREO_COUNT>
0

> <PUBCHEM_ISOTOPIC_ATOM_COUNT>
0

> <PUBCHEM_COMPONENT_COUNT>
1

> <PUBCHEM_CACTVS_TAUTO_COUNT>
2

> <PUBCHEM_CONFORMER_ID>
00A8C2F300000001

> <PUBCHEM_MMFF94_ENERGY>
102.3843

> <PUBCHEM_FEATURE_SELFOVERLAP>
45.765

> <PUBCHEM_SHAPE_FINGERPRINT>
10 15 18408322215756257328
10050765 1 18193838141784959072
10100884 174 17901104437196290939
10258939 38 18040426664727560544
10670039 82 11455903454735165635
10835480 77 18337665322101794877
10906281 52 18114192981618051628
11135926 11 18339067264315468414
117089 54 17621892984832193798
11719270 70 18409166636944985094
12120059 9 17821441370888667755
12788726 201 17131836417693714248
13073987 5 18340489963188659105
13533116 47 18201717310644157242
13782708 43 18115312168380799607
13811026 1 18334852788405255455
14118638 360 18131072597564133065
14251764 18 18334012834552162545
14394314 77 18412265039010699569
14461889 52 18334577958070188082
14849402 71 18131070454766148161
15183329 4 18187656773586806791
15247644 1 15068621613385632409
15347590 135 18411983563495860896
15461852 350 17703505601623953325
1577012 14 17203605974387618605
16990366 60 17903351516993813770
16992610 120 18263936604926337540
1813 80 17022910025243410823
18608769 82 18409166653565847731
19315958 150 18411422799802144211
21130935 74 18339931420431262195
21133410 32 16740927040709630850
21279426 13 18189335663502333695
21792934 111 18262236621317948621
22149856 69 18337969899622993297
22224240 67 18271518797706973504
23559900 14 18335139796223171641
23576562 1 12966545604783710113
24771293 8 18412544336053888733
24771750 20 17680443426488591204
249057 25 12901829367736543662
3004659 81 17749401355455024030
3178227 256 18343296003585282488
32027 91 17829599574845788478
3383291 50 17894919555271421659
3411729 13 18342174458601126350
397830 11 18333729083179222028
4066623 53 9727637224478111514
4073 2 18335425698340902755
4093350 32 17489874813068605390
4340502 62 18408602561536364238
4874694 18 18261382343922821607
5104073 3 18269276768295099033
5109719 28 18339934821960964472
6698420 124 17904479611565569637

> <PUBCHEM_SHAPE_MULTIPOLES>
697.69
23.55
3.19
1.4
0.6
2.68
-0.26
-6.93
10.55
-4.75
-0.26
0
0.09
1.67

> <PUBCHEM_SHAPE_SELFOVERLAP>
1476.015

> <PUBCHEM_SHAPE_VOLUME>
386.3

> <PUBCHEM_COORDINATE_TYPE>
2
5
10

$$$$
