101569430
  -OEChem-02172602433D

 81 86  0     1  0  0  0  0  0999 V2000
   -2.5128   -5.4722    0.2731 O   0  0  0  0  0  0  0  0  0  0  0  0
   -7.6504    1.4752    1.0221 O   0  0  0  0  0  0  0  0  0  0  0  0
   -5.9588    0.7845    2.4307 O   0  0  0  0  0  0  0  0  0  0  0  0
   -1.1832    0.2228   -0.9077 N   0  0  0  0  0  0  0  0  0  0  0  0
    0.5198   -2.0090   -0.1642 N   0  0  0  0  0  0  0  0  0  0  0  0
    1.2279    1.9271   -0.9060 N   0  0  0  0  0  0  0  0  0  0  0  0
    2.8391   -0.5694   -0.0774 N   0  0  0  0  0  0  0  0  0  0  0  0
    3.4145    4.5738    1.8311 N   0  0  0  0  0  0  0  0  0  0  0  0
   -3.5348   -0.0721   -1.0506 C   0  0  1  0  0  0  0  0  0  0  0  0
   -3.1543    1.2267   -1.7785 C   0  0  1  0  0  0  0  0  0  0  0  0
   -2.1552   -0.6322   -0.7850 C   0  0  0  0  0  0  0  0  0  0  0  0
   -4.2609    0.2045    0.2629 C   0  0  0  0  0  0  0  0  0  0  0  0
   -1.7186    1.4100   -1.3347 C   0  0  0  0  0  0  0  0  0  0  0  0
   -1.9553   -2.0406   -0.4049 C   0  0  0  0  0  0  0  0  0  0  0  0
   -3.2458    1.0703   -3.2965 C   0  0  0  0  0  0  0  0  0  0  0  0
   -3.0042   -3.1260   -0.2869 C   0  0  0  0  0  0  0  0  0  0  0  0
   -0.7327   -2.5083   -0.1683 C   0  0  0  0  0  0  0  0  0  0  0  0
   -5.6703    0.7303    0.0163 C   0  0  0  0  0  0  0  0  0  0  0  0
   -0.7194   -3.8944    0.1245 C   0  0  0  0  0  0  0  0  0  0  0  0
   -1.1035    2.6042   -1.3160 C   0  0  0  0  0  0  0  0  0  0  0  0
   -2.1259   -4.3349    0.0699 C   0  0  0  0  0  0  0  0  0  0  0  0
    0.5237   -4.3238    0.3296 C   0  0  0  0  0  0  0  0  0  0  0  0
    0.2182    2.8694   -0.8648 C   0  0  0  0  0  0  0  0  0  0  0  0
    1.2672   -3.0443    0.1203 C   0  0  0  0  0  0  0  0  0  0  0  0
    0.7823    4.0367   -0.3861 C   0  0  0  0  0  0  0  0  0  0  0  0
    2.1462    3.7843   -0.1177 C   0  0  0  0  0  0  0  0  0  0  0  0
    2.4096    2.4639   -0.4335 C   0  0  0  0  0  0  0  0  0  0  0  0
   -6.4081    0.9857    1.3108 C   0  0  0  0  0  0  0  0  0  0  0  0
    2.7462   -3.0047    0.2037 C   0  0  0  0  0  0  0  0  0  0  0  0
    1.0706   -5.6531    0.6522 C   0  0  0  0  0  0  0  0  0  0  0  0
    3.3804   -1.8258    0.0737 C   0  0  0  0  0  0  0  0  0  0  0  0
    3.7788    0.4140   -0.2244 C   0  0  0  0  0  0  0  0  0  0  0  0
    4.8326   -1.6170    0.0473 C   0  0  0  0  0  0  0  0  0  0  0  0
    3.6342    1.7400   -0.3877 C   0  0  0  0  0  0  0  0  0  0  0  0
    5.0715   -0.2951   -0.1369 C   0  0  0  0  0  0  0  0  0  0  0  0
    3.1188    4.7693    0.4063 C   0  0  0  0  0  0  0  0  0  0  0  0
    0.0867    5.3281   -0.1899 C   0  0  0  0  0  0  0  0  0  0  0  0
    5.8062   -2.7349    0.1970 C   0  0  0  0  0  0  0  0  0  0  0  0
    6.3847    0.4035   -0.2396 C   0  0  0  0  0  0  0  0  0  0  0  0
    5.9306   -3.1927    1.6408 C   0  0  0  0  0  0  0  0  0  0  0  0
   -8.4752    1.7689    2.1543 C   0  0  0  0  0  0  0  0  0  0  0  0
    4.3795    5.5572    2.2908 C   0  0  0  0  0  0  0  0  0  0  0  0
   -4.1118   -0.7561   -1.6825 H   0  0  0  0  0  0  0  0  0  0  0  0
   -3.7665    2.0815   -1.4753 H   0  0  0  0  0  0  0  0  0  0  0  0
   -3.6965    0.9187    0.8773 H   0  0  0  0  0  0  0  0  0  0  0  0
   -4.3195   -0.7119    0.8616 H   0  0  0  0  0  0  0  0  0  0  0  0
   -2.6281    0.2420   -3.6618 H   0  0  0  0  0  0  0  0  0  0  0  0
   -2.9146    1.9829   -3.8040 H   0  0  0  0  0  0  0  0  0  0  0  0
   -4.2807    0.8766   -3.5982 H   0  0  0  0  0  0  0  0  0  0  0  0
   -3.7057   -2.9309    0.5265 H   0  0  0  0  0  0  0  0  0  0  0  0
   -3.5125   -3.3008   -1.2379 H   0  0  0  0  0  0  0  0  0  0  0  0
   -6.2432   -0.0058   -0.5591 H   0  0  0  0  0  0  0  0  0  0  0  0
   -5.6490    1.6734   -0.5376 H   0  0  0  0  0  0  0  0  0  0  0  0
   -1.6822    3.4662   -1.6427 H   0  0  0  0  0  0  0  0  0  0  0  0
    1.1197    0.9896   -1.2672 H   0  0  0  0  0  0  0  0  0  0  0  0
    3.2754   -3.9423    0.3184 H   0  0  0  0  0  0  0  0  0  0  0  0
    1.7512   -5.9921   -0.1347 H   0  0  0  0  0  0  0  0  0  0  0  0
    0.2748   -6.3983    0.7499 H   0  0  0  0  0  0  0  0  0  0  0  0
    1.6197   -5.6245    1.5983 H   0  0  0  0  0  0  0  0  0  0  0  0
    4.5336    2.3488   -0.4469 H   0  0  0  0  0  0  0  0  0  0  0  0
    1.8465   -0.4008   -0.0470 H   0  0  0  0  0  0  0  0  0  0  0  0
    2.7480    5.7889    0.2445 H   0  0  0  0  0  0  0  0  0  0  0  0
    4.0475    4.6934   -0.1740 H   0  0  0  0  0  0  0  0  0  0  0  0
    0.3289    6.0177   -1.0051 H   0  0  0  0  0  0  0  0  0  0  0  0
   -1.0009    5.2117   -0.1567 H   0  0  0  0  0  0  0  0  0  0  0  0
    0.3838    5.7945    0.7553 H   0  0  0  0  0  0  0  0  0  0  0  0
    5.5175   -3.5799   -0.4393 H   0  0  0  0  0  0  0  0  0  0  0  0
    6.7977   -2.4342   -0.1585 H   0  0  0  0  0  0  0  0  0  0  0  0
    6.4778    1.1656    0.5414 H   0  0  0  0  0  0  0  0  0  0  0  0
    7.2308   -0.2790   -0.1233 H   0  0  0  0  0  0  0  0  0  0  0  0
    6.4871    0.8892   -1.2156 H   0  0  0  0  0  0  0  0  0  0  0  0
    2.5540    4.6748    2.3696 H   0  0  0  0  0  0  0  0  0  0  0  0
    4.9853   -3.5754    2.0373 H   0  0  0  0  0  0  0  0  0  0  0  0
    6.2615   -2.3725    2.2873 H   0  0  0  0  0  0  0  0  0  0  0  0
    6.6707   -3.9962    1.7161 H   0  0  0  0  0  0  0  0  0  0  0  0
   -9.4323    2.1495    1.7880 H   0  0  0  0  0  0  0  0  0  0  0  0
   -8.0059    2.5379    2.7753 H   0  0  0  0  0  0  0  0  0  0  0  0
   -8.6578    0.8601    2.7356 H   0  0  0  0  0  0  0  0  0  0  0  0
    5.3284    5.4659    1.7521 H   0  0  0  0  0  0  0  0  0  0  0  0
    4.5896    5.3933    3.3524 H   0  0  0  0  0  0  0  0  0  0  0  0
    4.0011    6.5786    2.1787 H   0  0  0  0  0  0  0  0  0  0  0  0
  1 21  2  0  0  0  0
  2 28  1  0  0  0  0
  2 41  1  0  0  0  0
  3 28  2  0  0  0  0
  4 11  2  0  0  0  0
  4 13  1  0  0  0  0
  5 17  1  0  0  0  0
  5 24  2  0  0  0  0
  6 23  1  0  0  0  0
  6 27  1  0  0  0  0
  6 55  1  0  0  0  0
  7 31  1  0  0  0  0
  7 32  1  0  0  0  0
  7 61  1  0  0  0  0
  8 36  1  0  0  0  0
  8 42  1  0  0  0  0
  8 72  1  0  0  0  0
  9 10  1  0  0  0  0
  9 11  1  0  0  0  0
  9 12  1  0  0  0  0
  9 43  1  0  0  0  0
 10 13  1  0  0  0  0
 10 15  1  0  0  0  0
 10 44  1  0  0  0  0
 11 14  1  0  0  0  0
 12 18  1  0  0  0  0
 12 45  1  0  0  0  0
 12 46  1  0  0  0  0
 13 20  2  0  0  0  0
 14 16  1  0  0  0  0
 14 17  2  0  0  0  0
 15 47  1  0  0  0  0
 15 48  1  0  0  0  0
 15 49  1  0  0  0  0
 16 21  1  0  0  0  0
 16 50  1  0  0  0  0
 16 51  1  0  0  0  0
 17 19  1  0  0  0  0
 18 28  1  0  0  0  0
 18 52  1  0  0  0  0
 18 53  1  0  0  0  0
 19 21  1  0  0  0  0
 19 22  2  0  0  0  0
 20 23  1  0  0  0  0
 20 54  1  0  0  0  0
 22 24  1  0  0  0  0
 22 30  1  0  0  0  0
 23 25  2  0  0  0  0
 24 29  1  0  0  0  0
 25 26  1  0  0  0  0
 25 37  1  0  0  0  0
 26 27  2  0  0  0  0
 26 36  1  0  0  0  0
 27 34  1  0  0  0  0
 29 31  2  0  0  0  0
 29 56  1  0  0  0  0
 30 57  1  0  0  0  0
 30 58  1  0  0  0  0
 30 59  1  0  0  0  0
 31 33  1  0  0  0  0
 32 34  2  0  0  0  0
 32 35  1  0  0  0  0
 33 35  2  0  0  0  0
 33 38  1  0  0  0  0
 34 60  1  0  0  0  0
 35 39  1  0  0  0  0
 36 62  1  0  0  0  0
 36 63  1  0  0  0  0
 37 64  1  0  0  0  0
 37 65  1  0  0  0  0
 37 66  1  0  0  0  0
 38 40  1  0  0  0  0
 38 67  1  0  0  0  0
 38 68  1  0  0  0  0
 39 69  1  0  0  0  0
 39 70  1  0  0  0  0
 39 71  1  0  0  0  0
 40 73  1  0  0  0  0
 40 74  1  0  0  0  0
 40 75  1  0  0  0  0
 41 76  1  0  0  0  0
 41 77  1  0  0  0  0
 41 78  1  0  0  0  0
 42 79  1  0  0  0  0
 42 80  1  0  0  0  0
 42 81  1  0  0  0  0
M  END
> <PUBCHEM_COMPOUND_CID>
101569430

> <PUBCHEM_CONFORMER_RMSD>
1

> <PUBCHEM_CONFORMER_DIVERSEORDER>
1
6
7
15
11
8
13
14
3
10
2
12
9
4
5

> <PUBCHEM_MMFF94_PARTIAL_CHARGES>
45
1 -0.57
10 0.14
11 0.37
13 0.03
14 -0.12
16 0.2
17 0.17
18 0.06
19 0.01
2 -0.43
20 -0.11
21 0.49
22 -0.12
23 -0.2
24 0.42
25 -0.18
26 -0.18
27 -0.2
28 0.66
29 -0.14
3 -0.57
30 0.14
31 0.1
32 0.1
33 -0.14
34 -0.11
35 -0.14
36 0.45
37 0.18
38 0.14
39 0.14
4 -0.62
41 0.28
42 0.27
5 -0.62
54 0.15
55 0.27
56 0.15
6 0.03
60 0.15
61 0.4
7 -0.6
72 0.36
8 -0.9
9 0.06

> <PUBCHEM_EFFECTIVE_ROTOR_COUNT>
7.6

> <PUBCHEM_PHARMACOPHORE_FEATURES>
16
1 1 acceptor
1 3 acceptor
1 4 acceptor
1 40 hydrophobe
1 5 acceptor
1 6 cation
1 6 donor
1 7 cation
1 7 donor
1 8 cation
1 8 donor
5 14 16 17 19 21 rings
5 4 9 10 11 13 rings
5 5 17 19 22 24 rings
5 6 23 25 26 27 rings
5 7 31 32 33 35 rings

> <PUBCHEM_HEAVY_ATOM_COUNT>
42

> <PUBCHEM_ATOM_DEF_STEREO_COUNT>
2

> <PUBCHEM_ATOM_UDEF_STEREO_COUNT>
0

> <PUBCHEM_BOND_DEF_STEREO_COUNT>
0

> <PUBCHEM_BOND_UDEF_STEREO_COUNT>
0

> <PUBCHEM_ISOTOPIC_ATOM_COUNT>
0

> <PUBCHEM_COMPONENT_COUNT>
1

> <PUBCHEM_CACTVS_TAUTO_COUNT>
1001

> <PUBCHEM_CONFORMER_ID>
060DD39600000001

> <PUBCHEM_MMFF94_ENERGY>
116.89

> <PUBCHEM_FEATURE_SELFOVERLAP>
81.487

> <PUBCHEM_SHAPE_FINGERPRINT>
10290309 65 18189327970868097822
10439779 11 18123459747131837760
10581848 127 17759537955257651369
10653451 467 18114191787781018179
10908659 184 18261383395773169594
1100329 8 18409729586033652591
11093857 5 17689441903107559236
11513181 2 17912087462639290310
12107183 9 18341339937654744721
12677640 9 18268434706304140499
12925494 130 18339081617953577579
13140716 1 18337673130362271447
14040222 383 18121785199270400816
14394314 77 18410576210287993148
14705955 166 17192621019322909241
14910700 183 18189064114464810187
15320467 1 18336820884629243038
15328829 1 17846200143868666501
15347590 135 17897450484571979835
15351339 4 17541920019469359252
16112460 7 18342182146091322600
20764821 26 18335409193097913590
20775438 99 17618454038697709454
3178227 256 18335147449163627915
3388396 114 17618468045034200894
463206 1 18408600370738994846
56638632 10 18340484448820143693
653340 110 17762335121112278916
9961470 85 18270115854491763529

> <PUBCHEM_SHAPE_MULTIPOLES>
821.83
14.64
9.09
1.72
16.12
0.48
-0.04
4.18
-9.15
-7.87
-3.26
2.43
1.77
0.07

> <PUBCHEM_SHAPE_SELFOVERLAP>
1805.943

> <PUBCHEM_SHAPE_VOLUME>
450

> <PUBCHEM_COORDINATE_TYPE>
2
5
10

$$$$
