177828330
  -OEChem-02172602223D

 53 54  0     1  0  0  0  0  0999 V2000
   -0.8742    0.3615   -0.4004 O   0  0  0  0  0  0  0  0  0  0  0  0
    0.2245    3.2233    1.6556 O   0  0  0  0  0  0  0  0  0  0  0  0
   -1.6104   -0.7808    0.0759 C   0  0  1  0  0  0  0  0  0  0  0  0
   -1.0268    1.4747    0.5000 C   0  0  1  0  0  0  0  0  0  0  0  0
   -2.2816   -0.3634    1.3855 C   0  0  0  0  0  0  0  0  0  0  0  0
   -1.4977    0.8537    1.8206 C   0  0  0  0  0  0  0  0  0  0  0  0
   -2.6653   -1.1198   -0.9863 C   0  0  0  0  0  0  0  0  0  0  0  0
    0.3350    2.1914    0.6673 C   0  0  1  0  0  0  0  0  0  0  0  0
   -0.6396   -1.9829    0.1958 C   0  0  0  0  0  0  0  0  0  0  0  0
   -2.1013    2.4156   -0.0651 C   0  0  0  0  0  0  0  0  0  0  0  0
    0.9445    2.8623   -0.5819 C   0  0  0  0  0  0  0  0  0  0  0  0
   -2.0017   -1.3425   -2.3409 C   0  0  0  0  0  0  0  0  0  0  0  0
   -3.4656   -2.3479   -0.5661 C   0  0  0  0  0  0  0  0  0  0  0  0
    0.4811   -1.8358    1.1933 C   0  0  0  0  0  0  0  0  0  0  0  0
    1.0970    2.0286   -1.8608 C   0  0  0  0  0  0  0  0  0  0  0  0
    1.8134   -1.8894    0.9860 C   0  0  0  0  0  0  0  0  0  0  0  0
    2.4867   -2.1146   -0.3545 C   0  0  0  0  0  0  0  0  0  0  0  0
    1.8814    0.7478   -1.8064 C   0  0  0  0  0  0  0  0  0  0  0  0
    3.4085   -0.9784   -0.8270 C   0  0  0  0  0  0  0  0  0  0  0  0
    2.7533   -1.7675    2.1599 C   0  0  0  0  0  0  0  0  0  0  0  0
    2.7388    0.3640   -0.8503 C   0  0  0  0  0  0  0  0  0  0  0  0
   -3.3246   -0.0626    1.2274 H   0  0  0  0  0  0  0  0  0  0  0  0
   -2.2933   -1.1517    2.1448 H   0  0  0  0  0  0  0  0  0  0  0  0
   -2.0888    1.5396    2.4362 H   0  0  0  0  0  0  0  0  0  0  0  0
   -0.6433    0.5342    2.4280 H   0  0  0  0  0  0  0  0  0  0  0  0
   -3.3502   -0.2700   -1.1012 H   0  0  0  0  0  0  0  0  0  0  0  0
    1.0529    1.4640    1.0593 H   0  0  0  0  0  0  0  0  0  0  0  0
   -0.2032   -2.2097   -0.7754 H   0  0  0  0  0  0  0  0  0  0  0  0
   -1.1813   -2.8800    0.5148 H   0  0  0  0  0  0  0  0  0  0  0  0
   -1.8482    2.7430   -1.0787 H   0  0  0  0  0  0  0  0  0  0  0  0
   -2.2345    3.3010    0.5646 H   0  0  0  0  0  0  0  0  0  0  0  0
   -3.0717    1.9156   -0.1493 H   0  0  0  0  0  0  0  0  0  0  0  0
    1.9294    3.2658   -0.3071 H   0  0  0  0  0  0  0  0  0  0  0  0
    0.3519    3.7544   -0.8269 H   0  0  0  0  0  0  0  0  0  0  0  0
   -1.3206   -0.5330   -2.6196 H   0  0  0  0  0  0  0  0  0  0  0  0
   -1.4656   -2.2935   -2.4107 H   0  0  0  0  0  0  0  0  0  0  0  0
   -2.7752   -1.3794   -3.1180 H   0  0  0  0  0  0  0  0  0  0  0  0
   -4.3319   -2.4587   -1.2296 H   0  0  0  0  0  0  0  0  0  0  0  0
   -3.8580   -2.2720    0.4519 H   0  0  0  0  0  0  0  0  0  0  0  0
   -2.8987   -3.2798   -0.6533 H   0  0  0  0  0  0  0  0  0  0  0  0
    0.1424   -1.7086    2.2206 H   0  0  0  0  0  0  0  0  0  0  0  0
    1.5586    2.6623   -2.6290 H   0  0  0  0  0  0  0  0  0  0  0  0
    0.0977    1.7940   -2.2454 H   0  0  0  0  0  0  0  0  0  0  0  0
    1.1173    3.5720    1.8195 H   0  0  0  0  0  0  0  0  0  0  0  0
    3.0836   -3.0337   -0.2841 H   0  0  0  0  0  0  0  0  0  0  0  0
    1.7600   -2.3126   -1.1471 H   0  0  0  0  0  0  0  0  0  0  0  0
    1.6923    0.0607   -2.6295 H   0  0  0  0  0  0  0  0  0  0  0  0
    3.7891   -1.2197   -1.8276 H   0  0  0  0  0  0  0  0  0  0  0  0
    4.2933   -0.9175   -0.1815 H   0  0  0  0  0  0  0  0  0  0  0  0
    3.4239   -2.6321    2.2002 H   0  0  0  0  0  0  0  0  0  0  0  0
    2.2222   -1.7215    3.1168 H   0  0  0  0  0  0  0  0  0  0  0  0
    3.3582   -0.8594    2.0780 H   0  0  0  0  0  0  0  0  0  0  0  0
    2.9684    1.0261   -0.0216 H   0  0  0  0  0  0  0  0  0  0  0  0
  1  3  1  0  0  0  0
  1  4  1  0  0  0  0
  2  8  1  0  0  0  0
  2 44  1  0  0  0  0
  3  5  1  0  0  0  0
  3  7  1  0  0  0  0
  3  9  1  0  0  0  0
  4  6  1  0  0  0  0
  4  8  1  0  0  0  0
  4 10  1  0  0  0  0
  5  6  1  0  0  0  0
  5 22  1  0  0  0  0
  5 23  1  0  0  0  0
  6 24  1  0  0  0  0
  6 25  1  0  0  0  0
  7 12  1  0  0  0  0
  7 13  1  0  0  0  0
  7 26  1  0  0  0  0
  8 11  1  0  0  0  0
  8 27  1  0  0  0  0
  9 14  1  0  0  0  0
  9 28  1  0  0  0  0
  9 29  1  0  0  0  0
 10 30  1  0  0  0  0
 10 31  1  0  0  0  0
 10 32  1  0  0  0  0
 11 15  1  0  0  0  0
 11 33  1  0  0  0  0
 11 34  1  0  0  0  0
 12 35  1  0  0  0  0
 12 36  1  0  0  0  0
 12 37  1  0  0  0  0
 13 38  1  0  0  0  0
 13 39  1  0  0  0  0
 13 40  1  0  0  0  0
 14 16  2  0  0  0  0
 14 41  1  0  0  0  0
 15 18  1  0  0  0  0
 15 42  1  0  0  0  0
 15 43  1  0  0  0  0
 16 17  1  0  0  0  0
 16 20  1  0  0  0  0
 17 19  1  0  0  0  0
 17 45  1  0  0  0  0
 17 46  1  0  0  0  0
 18 21  2  0  0  0  0
 18 47  1  0  0  0  0
 19 21  1  0  0  0  0
 19 48  1  0  0  0  0
 19 49  1  0  0  0  0
 20 50  1  0  0  0  0
 20 51  1  0  0  0  0
 20 52  1  0  0  0  0
 21 53  1  0  0  0  0
M  END
> <PUBCHEM_COMPOUND_CID>
177828330

> <PUBCHEM_CONFORMER_RMSD>
0.6

> <PUBCHEM_CONFORMER_DIVERSEORDER>
3
17
9
14
21
2
19
30
15
22
25
1
20
12
28
26
27
13
6
16
8
7
31
18
29
10
23
24
11
5
4

> <PUBCHEM_MMFF94_PARTIAL_CHARGES>
18
1 -0.56
14 -0.29
15 0.14
16 -0.28
17 0.14
18 -0.29
19 0.14
2 -0.68
20 0.14
21 -0.29
3 0.28
4 0.28
41 0.15
44 0.4
47 0.15
53 0.15
8 0.28
9 0.14

> <PUBCHEM_EFFECTIVE_ROTOR_COUNT>
2.8

> <PUBCHEM_PHARMACOPHORE_FEATURES>
5
1 1 acceptor
1 2 acceptor
1 2 donor
3 7 12 13 hydrophobe
5 1 3 4 5 6 rings

> <PUBCHEM_HEAVY_ATOM_COUNT>
21

> <PUBCHEM_ATOM_DEF_STEREO_COUNT>
1

> <PUBCHEM_ATOM_UDEF_STEREO_COUNT>
2

> <PUBCHEM_BOND_DEF_STEREO_COUNT>
2

> <PUBCHEM_BOND_UDEF_STEREO_COUNT>
0

> <PUBCHEM_ISOTOPIC_ATOM_COUNT>
0

> <PUBCHEM_COMPONENT_COUNT>
1

> <PUBCHEM_CACTVS_TAUTO_COUNT>
-1

> <PUBCHEM_CONFORMER_ID>
0A9971EA00000003

> <PUBCHEM_MMFF94_ENERGY>
57.5891

> <PUBCHEM_FEATURE_SELFOVERLAP>
25.372

> <PUBCHEM_SHAPE_MULTIPOLES>
420.43
4.61
3.68
2.1
0.56
1.85
-0.07
-2.97
-0.98
0.2
0.52
0.14
-0.02
-1.64

> <PUBCHEM_SHAPE_SELFOVERLAP>
847.51

> <PUBCHEM_SHAPE_VOLUME>
246.2

> <PUBCHEM_COORDINATE_TYPE>
2
5
10

$$$$
