10168641
  -OEChem-02172602523D

 87 90  0     1  0  0  0  0  0999 V2000
    1.6816    2.6449   -1.5838 O   0  0  0  0  0  0  0  0  0  0  0  0
   -0.0748   -0.3122   -0.3350 O   0  0  0  0  0  0  0  0  0  0  0  0
   -0.3161   -1.8610   -2.0829 O   0  0  0  0  0  0  0  0  0  0  0  0
    2.0454    1.4154    0.3830 O   0  0  0  0  0  0  0  0  0  0  0  0
    5.3159   -0.2093    0.1942 O   0  0  0  0  0  0  0  0  0  0  0  0
   -2.8967    0.0041   -0.2834 O   0  0  0  0  0  0  0  0  0  0  0  0
   -0.4456    2.1000    1.2757 O   0  0  0  0  0  0  0  0  0  0  0  0
   -1.4458   -1.9761    1.3360 O   0  0  0  0  0  0  0  0  0  0  0  0
   -0.3237    4.9949    0.1924 O   0  0  0  0  0  0  0  0  0  0  0  0
   -0.2224   -4.5637    0.2419 O   0  0  0  0  0  0  0  0  0  0  0  0
    4.3853    1.0434    1.9483 O   0  0  0  0  0  0  0  0  0  0  0  0
   -5.1347   -0.1788   -1.0438 O   0  0  0  0  0  0  0  0  0  0  0  0
    2.4219   -0.8261    2.2492 O   0  0  0  0  0  0  0  0  0  0  0  0
    4.2344   -3.2413    1.7290 O   0  0  0  0  0  0  0  0  0  0  0  0
    3.3141    4.7829   -2.3887 O   0  0  0  0  0  0  0  0  0  0  0  0
    1.8677   -3.0410   -3.4143 O   0  0  0  0  0  0  0  0  0  0  0  0
   -3.4862    2.4986    0.8591 O   0  0  0  0  0  0  0  0  0  0  0  0
   -5.7994    1.8684    2.4801 O   0  0  0  0  0  0  0  0  0  0  0  0
   -6.5322   -0.9027    2.2895 O   0  0  0  0  0  0  0  0  0  0  0  0
    7.9443   -1.2207    0.2429 O   0  0  0  0  0  0  0  0  0  0  0  0
   -6.0973   -2.6770   -1.5777 O   0  0  0  0  0  0  0  0  0  0  0  0
    1.0842    1.7634   -0.6149 C   0  0  1  0  0  0  0  0  0  0  0  0
   -0.9647   -1.2399   -0.9574 C   0  0  1  0  0  0  0  0  0  0  0  0
   -0.0294    2.5918    0.0174 C   0  0  2  0  0  0  0  0  0  0  0  0
   -1.2527   -2.3928   -0.0008 C   0  0  1  0  0  0  0  0  0  0  0  0
    0.6294    3.9515    0.1114 C   0  0  1  0  0  0  0  0  0  0  0  0
    0.5729    0.5043   -1.2973 C   0  0  0  0  0  0  0  0  0  0  0  0
    1.3862    4.0065   -1.2109 C   0  0  1  0  0  0  0  0  0  0  0  0
    0.0033   -3.2227   -0.1522 C   0  0  2  0  0  0  0  0  0  0  0  0
    0.2568   -3.1118   -1.6516 C   0  0  2  0  0  0  0  0  0  0  0  0
    4.0917    0.2450    0.8009 C   0  0  2  0  0  0  0  0  0  0  0  0
   -2.2218   -0.5177   -1.4178 C   0  0  0  0  0  0  0  0  0  0  0  0
    3.3849   -1.0349    1.2357 C   0  0  1  0  0  0  0  0  0  0  0  0
    3.2883    1.0599   -0.2012 C   0  0  0  0  0  0  0  0  0  0  0  0
    4.5505   -1.8613    1.7334 C   0  0  2  0  0  0  0  0  0  0  0  0
    5.6193   -1.5252    0.6991 C   0  0  2  0  0  0  0  0  0  0  0  0
    2.6798    4.7974   -1.1206 C   0  0  0  0  0  0  0  0  0  0  0  0
    1.7337   -3.1379   -2.0060 C   0  0  0  0  0  0  0  0  0  0  0  0
   -4.0799    0.7058   -0.6604 C   0  0  1  0  0  0  0  0  0  0  0  0
   -4.5601    1.6724    0.4234 C   0  0  1  0  0  0  0  0  0  0  0  0
   -5.1459    0.9298    1.6226 C   0  0  2  0  0  0  0  0  0  0  0  0
   -6.1790   -0.1016    1.1643 C   0  0  1  0  0  0  0  0  0  0  0  0
   -5.6222   -0.9818    0.0372 C   0  0  1  0  0  0  0  0  0  0  0  0
    7.0244   -1.5316    1.2762 C   0  0  0  0  0  0  0  0  0  0  0  0
   -6.6852   -1.9113   -0.5424 C   0  0  0  0  0  0  0  0  0  0  0  0
   -0.9070    2.6406   -0.6396 H   0  0  0  0  0  0  0  0  0  0  0  0
   -2.1299   -2.9740   -0.3125 H   0  0  0  0  0  0  0  0  0  0  0  0
    1.2878    4.0188    0.9848 H   0  0  0  0  0  0  0  0  0  0  0  0
    1.3805   -0.0671   -1.7607 H   0  0  0  0  0  0  0  0  0  0  0  0
   -0.0802    0.8088   -2.1209 H   0  0  0  0  0  0  0  0  0  0  0  0
    0.7669    4.4208   -2.0162 H   0  0  0  0  0  0  0  0  0  0  0  0
    0.8241   -2.8236    0.4526 H   0  0  0  0  0  0  0  0  0  0  0  0
   -0.2619   -3.9007   -2.2100 H   0  0  0  0  0  0  0  0  0  0  0  0
   -2.8757   -1.2260   -1.9429 H   0  0  0  0  0  0  0  0  0  0  0  0
   -2.0076    0.2865   -2.1270 H   0  0  0  0  0  0  0  0  0  0  0  0
    2.8984   -1.5376    0.3956 H   0  0  0  0  0  0  0  0  0  0  0  0
    3.1994    0.4931   -1.1326 H   0  0  0  0  0  0  0  0  0  0  0  0
    3.8422    1.9767   -0.4348 H   0  0  0  0  0  0  0  0  0  0  0  0
    4.8422   -1.5893    2.7536 H   0  0  0  0  0  0  0  0  0  0  0  0
    5.5790   -2.2056   -0.1605 H   0  0  0  0  0  0  0  0  0  0  0  0
    2.4845    5.8359   -0.8357 H   0  0  0  0  0  0  0  0  0  0  0  0
    3.3684    4.3494   -0.3977 H   0  0  0  0  0  0  0  0  0  0  0  0
    2.2035   -4.0669   -1.6687 H   0  0  0  0  0  0  0  0  0  0  0  0
    2.2618   -2.2862   -1.5726 H   0  0  0  0  0  0  0  0  0  0  0  0
   -3.8439    1.3201   -1.5391 H   0  0  0  0  0  0  0  0  0  0  0  0
   -5.3338    2.3310    0.0081 H   0  0  0  0  0  0  0  0  0  0  0  0
   -1.0757    2.7420    1.6451 H   0  0  0  0  0  0  0  0  0  0  0  0
   -4.3540    0.4644    2.2210 H   0  0  0  0  0  0  0  0  0  0  0  0
   -2.2064   -1.3705    1.3463 H   0  0  0  0  0  0  0  0  0  0  0  0
   -7.0890    0.4117    0.8307 H   0  0  0  0  0  0  0  0  0  0  0  0
   -0.9281    4.9191   -0.5653 H   0  0  0  0  0  0  0  0  0  0  0  0
   -4.7972   -1.6066    0.4049 H   0  0  0  0  0  0  0  0  0  0  0  0
    7.1309   -0.7702    2.0558 H   0  0  0  0  0  0  0  0  0  0  0  0
    7.2756   -2.5132    1.6895 H   0  0  0  0  0  0  0  0  0  0  0  0
   -0.9525   -4.9224   -0.2907 H   0  0  0  0  0  0  0  0  0  0  0  0
    4.3206    0.5004    2.7502 H   0  0  0  0  0  0  0  0  0  0  0  0
    1.7461   -0.2263    1.8902 H   0  0  0  0  0  0  0  0  0  0  0  0
    3.9670   -3.4930    0.8287 H   0  0  0  0  0  0  0  0  0  0  0  0
   -7.5091   -1.3366   -0.9786 H   0  0  0  0  0  0  0  0  0  0  0  0
   -7.0807   -2.5899    0.2194 H   0  0  0  0  0  0  0  0  0  0  0  0
    4.1363    5.2950   -2.3034 H   0  0  0  0  0  0  0  0  0  0  0  0
    2.8194   -3.0597   -3.6134 H   0  0  0  0  0  0  0  0  0  0  0  0
   -3.1586    2.9839    0.0829 H   0  0  0  0  0  0  0  0  0  0  0  0
   -6.5020    2.3067    1.9705 H   0  0  0  0  0  0  0  0  0  0  0  0
   -5.7397   -1.3908    2.5710 H   0  0  0  0  0  0  0  0  0  0  0  0
    8.8328   -1.2314    0.6379 H   0  0  0  0  0  0  0  0  0  0  0  0
   -6.7905   -3.2584   -1.9339 H   0  0  0  0  0  0  0  0  0  0  0  0
  1 22  1  0  0  0  0
  1 28  1  0  0  0  0
  2 23  1  0  0  0  0
  2 27  1  0  0  0  0
  3 23  1  0  0  0  0
  3 30  1  0  0  0  0
  4 22  1  0  0  0  0
  4 34  1  0  0  0  0
  5 31  1  0  0  0  0
  5 36  1  0  0  0  0
  6 32  1  0  0  0  0
  6 39  1  0  0  0  0
  7 24  1  0  0  0  0
  7 67  1  0  0  0  0
  8 25  1  0  0  0  0
  8 69  1  0  0  0  0
  9 26  1  0  0  0  0
  9 71  1  0  0  0  0
 10 29  1  0  0  0  0
 10 75  1  0  0  0  0
 11 31  1  0  0  0  0
 11 76  1  0  0  0  0
 12 39  1  0  0  0  0
 12 43  1  0  0  0  0
 13 33  1  0  0  0  0
 13 77  1  0  0  0  0
 14 35  1  0  0  0  0
 14 78  1  0  0  0  0
 15 37  1  0  0  0  0
 15 81  1  0  0  0  0
 16 38  1  0  0  0  0
 16 82  1  0  0  0  0
 17 40  1  0  0  0  0
 17 83  1  0  0  0  0
 18 41  1  0  0  0  0
 18 84  1  0  0  0  0
 19 42  1  0  0  0  0
 19 85  1  0  0  0  0
 20 44  1  0  0  0  0
 20 86  1  0  0  0  0
 21 45  1  0  0  0  0
 21 87  1  0  0  0  0
 22 24  1  0  0  0  0
 22 27  1  0  0  0  0
 23 25  1  0  0  0  0
 23 32  1  0  0  0  0
 24 26  1  0  0  0  0
 24 46  1  0  0  0  0
 25 29  1  0  0  0  0
 25 47  1  0  0  0  0
 26 28  1  0  0  0  0
 26 48  1  0  0  0  0
 27 49  1  0  0  0  0
 27 50  1  0  0  0  0
 28 37  1  0  0  0  0
 28 51  1  0  0  0  0
 29 30  1  0  0  0  0
 29 52  1  0  0  0  0
 30 38  1  0  0  0  0
 30 53  1  0  0  0  0
 31 33  1  0  0  0  0
 31 34  1  0  0  0  0
 32 54  1  0  0  0  0
 32 55  1  0  0  0  0
 33 35  1  0  0  0  0
 33 56  1  0  0  0  0
 34 57  1  0  0  0  0
 34 58  1  0  0  0  0
 35 36  1  0  0  0  0
 35 59  1  0  0  0  0
 36 44  1  0  0  0  0
 36 60  1  0  0  0  0
 37 61  1  0  0  0  0
 37 62  1  0  0  0  0
 38 63  1  0  0  0  0
 38 64  1  0  0  0  0
 39 40  1  0  0  0  0
 39 65  1  0  0  0  0
 40 41  1  0  0  0  0
 40 66  1  0  0  0  0
 41 42  1  0  0  0  0
 41 68  1  0  0  0  0
 42 43  1  0  0  0  0
 42 70  1  0  0  0  0
 43 45  1  0  0  0  0
 43 72  1  0  0  0  0
 44 73  1  0  0  0  0
 44 74  1  0  0  0  0
 45 79  1  0  0  0  0
 45 80  1  0  0  0  0
M  END
> <PUBCHEM_COMPOUND_CID>
10168641

> <PUBCHEM_CONFORMER_RMSD>
1.4

> <PUBCHEM_CONFORMER_DIVERSEORDER>
1
5
15
21
4
20
16
17
2
19
7
27
25
24
26
8
11
9
18
23
13
12
22
10
6
14
3

> <PUBCHEM_MMFF94_PARTIAL_CHARGES>
59
1 -0.56
10 -0.68
11 -0.68
12 -0.56
13 -0.68
14 -0.68
15 -0.68
16 -0.68
17 -0.68
18 -0.68
19 -0.68
2 -0.56
20 -0.68
21 -0.68
22 0.56
23 0.56
24 0.28
25 0.28
26 0.28
27 0.28
28 0.28
29 0.28
3 -0.56
30 0.28
31 0.56
32 0.28
33 0.28
34 0.28
35 0.28
36 0.28
37 0.28
38 0.28
39 0.56
4 -0.56
40 0.28
41 0.28
42 0.28
43 0.28
44 0.28
45 0.28
5 -0.56
6 -0.56
67 0.4
69 0.4
7 -0.68
71 0.4
75 0.4
76 0.4
77 0.4
78 0.4
8 -0.68
81 0.4
82 0.4
83 0.4
84 0.4
85 0.4
86 0.4
87 0.4
9 -0.68

> <PUBCHEM_EFFECTIVE_ROTOR_COUNT>
17.2

> <PUBCHEM_PHARMACOPHORE_FEATURES>
39
1 1 acceptor
1 10 acceptor
1 10 donor
1 11 acceptor
1 11 donor
1 12 acceptor
1 13 acceptor
1 13 donor
1 14 acceptor
1 14 donor
1 15 acceptor
1 15 donor
1 16 acceptor
1 16 donor
1 17 acceptor
1 17 donor
1 18 acceptor
1 18 donor
1 19 acceptor
1 19 donor
1 2 acceptor
1 20 acceptor
1 20 donor
1 21 acceptor
1 21 donor
1 3 acceptor
1 4 acceptor
1 5 acceptor
1 6 acceptor
1 7 acceptor
1 7 donor
1 8 acceptor
1 8 donor
1 9 acceptor
1 9 donor
5 1 22 24 26 28 rings
5 3 23 25 29 30 rings
5 5 31 33 35 36 rings
6 12 39 40 41 42 43 rings

> <PUBCHEM_HEAVY_ATOM_COUNT>
45

> <PUBCHEM_ATOM_DEF_STEREO_COUNT>
17

> <PUBCHEM_ATOM_UDEF_STEREO_COUNT>
0

> <PUBCHEM_BOND_DEF_STEREO_COUNT>
0

> <PUBCHEM_BOND_UDEF_STEREO_COUNT>
0

> <PUBCHEM_ISOTOPIC_ATOM_COUNT>
0

> <PUBCHEM_COMPONENT_COUNT>
1

> <PUBCHEM_CACTVS_TAUTO_COUNT>
1

> <PUBCHEM_CONFORMER_ID>
009B294100000001

> <PUBCHEM_MMFF94_ENERGY>
148.3865

> <PUBCHEM_FEATURE_SELFOVERLAP>
198.259

> <PUBCHEM_SHAPE_FINGERPRINT>
10169797 241 17827113815637187819
11445158 3 18334288807696925637
12128747 34 17459193035368512483
12166972 35 18412539942318182409
12422481 6 18056749927899912642
12677640 9 18265612276302962291
13782708 43 16877937235409712027
14955137 171 18408880733060595571
15444296 9 17986389976301285518
15840311 113 17202493204174928067
16112460 7 18131067168999816928
19319366 153 17972889338626390340
20028762 73 18201718513688674687
21987440 362 16700346209188604561
25019877 29 17703782614114059862
3383291 50 18411409639912287890
392239 28 18264203604644714547
5912855 24 17831862721926062175
6086070 43 18190157088966952965
6371009 1 18271518810597202343

> <PUBCHEM_SHAPE_MULTIPOLES>
802.82
15.14
6.07
2.27
6.16
5.24
0.38
-6.91
-8.05
-3.95
2.79
-0.15
-0.77
-3.34

> <PUBCHEM_SHAPE_SELFOVERLAP>
1678.962

> <PUBCHEM_SHAPE_VOLUME>
452.2

> <PUBCHEM_COORDINATE_TYPE>
2
5
10

$$$$
