102146907
  -OEChem-02172602433D

 25 26  0     1  0  0  0  0  0999 V2000
    4.3804   -1.1284   -0.8026 F   0  0  0  0  0  0  0  0  0  0  0  0
    4.0911    1.5981    0.0889 F   0  0  0  0  0  0  0  0  0  0  0  0
   -3.9147   -1.3608    0.0064 O   0  0  0  0  0  0  0  0  0  0  0  0
   -1.0528    1.6518   -0.0513 N   0  0  0  0  0  0  0  0  0  0  0  0
    0.7349    0.0585    0.0967 C   0  0  0  0  0  0  0  0  0  0  0  0
   -0.7116    0.3462    0.0300 C   0  0  0  0  0  0  0  0  0  0  0  0
    3.5617   -0.8164    0.2408 C   0  0  1  0  0  0  0  0  0  0  0  0
    1.8314    1.0467    0.0641 C   0  0  0  0  0  0  0  0  0  0  0  0
    3.1263    0.6514    0.1300 C   0  0  0  0  0  0  0  0  0  0  0  0
   -1.6259   -0.6946    0.0526 C   0  0  0  0  0  0  0  0  0  0  0  0
    2.3651   -1.7511    0.2517 C   0  0  0  0  0  0  0  0  0  0  0  0
   -2.9777   -0.3748   -0.0125 C   0  0  0  0  0  0  0  0  0  0  0  0
    1.2179   -1.1492    0.1778 C   0  0  0  0  0  0  0  0  0  0  0  0
   -3.3680    0.9571   -0.0967 C   0  0  0  0  0  0  0  0  0  0  0  0
   -2.3757    1.9240   -0.1127 C   0  0  0  0  0  0  0  0  0  0  0  0
   -5.2824   -0.9587   -0.0634 C   0  0  0  0  0  0  0  0  0  0  0  0
    4.1367   -0.9503    1.1629 H   0  0  0  0  0  0  0  0  0  0  0  0
    1.5857    2.1000   -0.0155 H   0  0  0  0  0  0  0  0  0  0  0  0
   -1.3313   -1.7372    0.1183 H   0  0  0  0  0  0  0  0  0  0  0  0
    2.4702   -2.8255    0.3199 H   0  0  0  0  0  0  0  0  0  0  0  0
   -4.3948    1.2966   -0.1511 H   0  0  0  0  0  0  0  0  0  0  0  0
   -2.6266    2.9777   -0.1773 H   0  0  0  0  0  0  0  0  0  0  0  0
   -5.8893   -1.8696   -0.0368 H   0  0  0  0  0  0  0  0  0  0  0  0
   -5.5046   -0.4527   -1.0090 H   0  0  0  0  0  0  0  0  0  0  0  0
   -5.5691   -0.3567    0.8055 H   0  0  0  0  0  0  0  0  0  0  0  0
  1  7  1  0  0  0  0
  2  9  1  0  0  0  0
  3 12  1  0  0  0  0
  3 16  1  0  0  0  0
  4  6  2  0  0  0  0
  4 15  1  0  0  0  0
  5  6  1  0  0  0  0
  5  8  1  0  0  0  0
  5 13  2  0  0  0  0
  6 10  1  0  0  0  0
  7  9  1  0  0  0  0
  7 11  1  0  0  0  0
  7 17  1  0  0  0  0
  8  9  2  0  0  0  0
  8 18  1  0  0  0  0
 10 12  2  0  0  0  0
 10 19  1  0  0  0  0
 11 13  2  0  0  0  0
 11 20  1  0  0  0  0
 12 14  1  0  0  0  0
 14 15  2  0  0  0  0
 14 21  1  0  0  0  0
 15 22  1  0  0  0  0
 16 23  1  0  0  0  0
 16 24  1  0  0  0  0
 16 25  1  0  0  0  0
M  END
> <PUBCHEM_COMPOUND_CID>
102146907

> <PUBCHEM_CONFORMER_RMSD>
0.6

> <PUBCHEM_CONFORMER_DIVERSEORDER>
1
10
5
9
7
8
4
2
11
3
12
6

> <PUBCHEM_MMFF94_PARTIAL_CHARGES>
21
1 -0.34
10 -0.15
11 -0.22
12 0.08
13 -0.13
14 -0.15
15 0.16
16 0.28
18 0.15
19 0.15
2 -0.15
20 0.15
21 0.15
22 0.15
3 -0.36
4 -0.62
5 0.04
6 0.34
7 0.62
8 -0.15
9 0.01

> <PUBCHEM_EFFECTIVE_ROTOR_COUNT>
2.2

> <PUBCHEM_PHARMACOPHORE_FEATURES>
4
1 3 acceptor
1 4 acceptor
6 4 6 10 12 14 15 rings
6 5 7 8 9 11 13 rings

> <PUBCHEM_HEAVY_ATOM_COUNT>
16

> <PUBCHEM_ATOM_DEF_STEREO_COUNT>
0

> <PUBCHEM_ATOM_UDEF_STEREO_COUNT>
1

> <PUBCHEM_BOND_DEF_STEREO_COUNT>
0

> <PUBCHEM_BOND_UDEF_STEREO_COUNT>
0

> <PUBCHEM_ISOTOPIC_ATOM_COUNT>
0

> <PUBCHEM_COMPONENT_COUNT>
1

> <PUBCHEM_CACTVS_TAUTO_COUNT>
1

> <PUBCHEM_CONFORMER_ID>
0616A35B00000001

> <PUBCHEM_MMFF94_ENERGY>
63.6973

> <PUBCHEM_FEATURE_SELFOVERLAP>
20.298

> <PUBCHEM_SHAPE_FINGERPRINT>
10608611 8 18337386050379762796
10616163 171 18412263909086524135
11471102 20 18409726287577610902
11615757 297 18060142032935164912
11806522 49 18334856160139231463
12032990 46 18413109446080233196
12916754 54 18342742883767035233
12932764 1 17459748129473184408
13296908 3 18412824659683711339
14144814 61 18409727322575026144
14325111 11 18410291393683931000
15196674 1 18410573972335322425
15309172 13 16702299040375407927
15442244 35 18049720720272803354
15536298 74 18413107260342858144
18186145 218 18187080616097143396
19050596 39 18409728422055044424
19422 9 18342461417422522121
1986462 14 18337674118056997773
200 152 18272364283240742047
20281475 54 18337107843714668650
20510252 161 18342738499038241793
20645477 70 18342739594218076334
21267235 1 18410863143825037610
21501502 16 18337671914665038785
221490 88 18410017611241736314
23402539 116 18409720794710247311
23402655 69 18263079924887323388
23557571 272 18342464707615514261
23559900 14 18196363728599472714
25610 137 18410574006853316369
2871803 45 18334571348025913187
4214541 1 18338797810509100473
4463277 17 18409449198648706817
474 4 17458914859074520836
4990 188 18272661108504532454
5104073 3 18411135809855265793
5374978 207 18408878555454057153
57096353 35 18408604794201719436
7364860 26 18341049722155719104
77779 3 18411700958868787009
83771 10 18413387661772793795
9709674 26 18409453561344365387

> <PUBCHEM_SHAPE_MULTIPOLES>
303.87
9.07
1.86
0.63
2.49
0.31
0.01
-2.14
0.56
0
0
-0.14
-0.04
0.14

> <PUBCHEM_SHAPE_SELFOVERLAP>
655.943

> <PUBCHEM_SHAPE_VOLUME>
168

> <PUBCHEM_COORDINATE_TYPE>
2
5
10

$$$$
