10141619
  -OEChem-02172602523D

 75 76  0     1  0  0  0  0  0999 V2000
   -1.1019   -0.6567   -1.8984 O   0  0  0  0  0  0  0  0  0  0  0  0
    5.0198   -2.6691   -2.7995 O   0  0  0  0  0  0  0  0  0  0  0  0
    2.8251    2.4261    0.5010 O   0  0  0  0  0  0  0  0  0  0  0  0
    4.3452    0.7234    0.2557 O   0  0  0  0  0  0  0  0  0  0  0  0
    0.9222   -1.5769   -0.3468 N   0  0  0  0  0  0  0  0  0  0  0  0
    3.1334   -1.3713   -1.1864 N   0  0  0  0  0  0  0  0  0  0  0  0
   -1.5170    1.0314   -0.3594 N   0  0  0  0  0  0  0  0  0  0  0  0
    2.0722    0.4188   -0.1914 N   0  0  0  0  0  0  0  0  0  0  0  0
   -1.1594    4.1888   -1.5631 N   0  0  0  0  0  0  0  0  0  0  0  0
   -0.6321   -2.1881    2.5620 C   0  0  0  0  0  0  0  0  0  0  0  0
   -0.4225   -0.9141    3.4636 C   0  0  0  0  0  0  0  0  0  0  0  0
   -1.0579   -1.8216    1.0994 C   0  0  0  0  0  0  0  0  0  0  0  0
    0.6673   -3.0250    2.5277 C   0  0  0  0  0  0  0  0  0  0  0  0
   -1.7443   -3.1040    3.1291 C   0  0  0  0  0  0  0  0  0  0  0  0
   -0.1581   -0.8490    0.3231 C   0  0  2  0  0  0  0  0  0  0  0  0
    0.0573   -1.2288    4.8901 C   0  0  0  0  0  0  0  0  0  0  0  0
   -1.6606   -0.0109    3.5636 C   0  0  0  0  0  0  0  0  0  0  0  0
   -0.9624   -0.1690   -0.7787 C   0  0  0  0  0  0  0  0  0  0  0  0
    2.0080   -0.9231   -0.5857 C   0  0  0  0  0  0  0  0  0  0  0  0
    3.7602   -0.6585   -2.2968 C   0  0  0  0  0  0  0  0  0  0  0  0
    3.9120   -2.4847   -0.6498 C   0  0  0  0  0  0  0  0  0  0  0  0
   -2.3393    1.8632   -1.2080 C   0  0  1  0  0  0  0  0  0  0  0  0
    4.1792   -1.6602   -3.3656 C   0  0  0  0  0  0  0  0  0  0  0  0
    4.3247   -3.4066   -1.7908 C   0  0  0  0  0  0  0  0  0  0  0  0
   -3.7410    2.0551   -0.6103 C   0  0  0  0  0  0  0  0  0  0  0  0
   -4.6389    0.8576   -0.8127 C   0  0  0  0  0  0  0  0  0  0  0  0
   -1.6805    3.1639   -1.4053 C   0  0  0  0  0  0  0  0  0  0  0  0
    3.1958    1.1465    0.1949 C   0  0  0  0  0  0  0  0  0  0  0  0
   -5.4363    0.7688   -1.9538 C   0  0  0  0  0  0  0  0  0  0  0  0
   -4.6706   -0.1598    0.1411 C   0  0  0  0  0  0  0  0  0  0  0  0
   -6.2654   -0.3372   -2.1410 C   0  0  0  0  0  0  0  0  0  0  0  0
   -5.4997   -1.2658   -0.0463 C   0  0  0  0  0  0  0  0  0  0  0  0
   -6.2971   -1.3544   -1.1874 C   0  0  0  0  0  0  0  0  0  0  0  0
    3.8810    3.2996    0.9165 C   0  0  0  0  0  0  0  0  0  0  0  0
    3.3038    4.6447    1.2086 C   0  0  0  0  0  0  0  0  0  0  0  0
    3.3779    5.2466    2.4009 C   0  0  0  0  0  0  0  0  0  0  0  0
    0.3822   -0.3102    3.0286 H   0  0  0  0  0  0  0  0  0  0  0  0
   -1.1611   -2.7489    0.5168 H   0  0  0  0  0  0  0  0  0  0  0  0
   -2.0728   -1.4089    1.1398 H   0  0  0  0  0  0  0  0  0  0  0  0
    1.5331   -2.4051    2.2723 H   0  0  0  0  0  0  0  0  0  0  0  0
    0.6000   -3.8267    1.7831 H   0  0  0  0  0  0  0  0  0  0  0  0
    0.8715   -3.5049    3.4905 H   0  0  0  0  0  0  0  0  0  0  0  0
   -1.5143   -3.4491    4.1418 H   0  0  0  0  0  0  0  0  0  0  0  0
   -1.8663   -3.9991    2.5070 H   0  0  0  0  0  0  0  0  0  0  0  0
   -2.7143   -2.5975    3.1563 H   0  0  0  0  0  0  0  0  0  0  0  0
    0.1864   -0.1029    1.0377 H   0  0  0  0  0  0  0  0  0  0  0  0
   -0.6760   -1.8187    5.4477 H   0  0  0  0  0  0  0  0  0  0  0  0
    1.0095   -1.7664    4.8901 H   0  0  0  0  0  0  0  0  0  0  0  0
    0.2219   -0.3010    5.4503 H   0  0  0  0  0  0  0  0  0  0  0  0
   -2.4922   -0.5144    4.0657 H   0  0  0  0  0  0  0  0  0  0  0  0
   -2.0018    0.3227    2.5813 H   0  0  0  0  0  0  0  0  0  0  0  0
   -1.4291    0.8915    4.1411 H   0  0  0  0  0  0  0  0  0  0  0  0
   -1.3298    1.3614    0.5831 H   0  0  0  0  0  0  0  0  0  0  0  0
    4.6566   -0.1358   -1.9487 H   0  0  0  0  0  0  0  0  0  0  0  0
    3.0804    0.0790   -2.7385 H   0  0  0  0  0  0  0  0  0  0  0  0
    3.3394   -3.0492    0.0947 H   0  0  0  0  0  0  0  0  0  0  0  0
    4.8023   -2.0822   -0.1530 H   0  0  0  0  0  0  0  0  0  0  0  0
   -2.4284    1.3869   -2.1923 H   0  0  0  0  0  0  0  0  0  0  0  0
    4.7454   -1.1543   -4.1540 H   0  0  0  0  0  0  0  0  0  0  0  0
    3.3081   -2.1353   -3.8326 H   0  0  0  0  0  0  0  0  0  0  0  0
    3.4555   -3.9027   -2.2392 H   0  0  0  0  0  0  0  0  0  0  0  0
    4.9982   -4.1850   -1.4191 H   0  0  0  0  0  0  0  0  0  0  0  0
    1.2135    0.9479   -0.0942 H   0  0  0  0  0  0  0  0  0  0  0  0
   -4.2324    2.9254   -1.0680 H   0  0  0  0  0  0  0  0  0  0  0  0
   -3.6794    2.2917    0.4611 H   0  0  0  0  0  0  0  0  0  0  0  0
   -5.4187    1.5536   -2.7053 H   0  0  0  0  0  0  0  0  0  0  0  0
   -4.0638   -0.0966    1.0395 H   0  0  0  0  0  0  0  0  0  0  0  0
   -6.8858   -0.4066   -3.0298 H   0  0  0  0  0  0  0  0  0  0  0  0
   -5.5257   -2.0569    0.6975 H   0  0  0  0  0  0  0  0  0  0  0  0
   -6.9428   -2.2154   -1.3330 H   0  0  0  0  0  0  0  0  0  0  0  0
    4.3754    2.8768    1.7991 H   0  0  0  0  0  0  0  0  0  0  0  0
    4.6136    3.3929    0.1066 H   0  0  0  0  0  0  0  0  0  0  0  0
    2.7981    5.1589    0.3955 H   0  0  0  0  0  0  0  0  0  0  0  0
    2.9389    6.2271    2.5492 H   0  0  0  0  0  0  0  0  0  0  0  0
    3.8726    4.7774    3.2441 H   0  0  0  0  0  0  0  0  0  0  0  0
  1 18  2  0  0  0  0
  2 23  1  0  0  0  0
  2 24  1  0  0  0  0
  3 28  1  0  0  0  0
  3 34  1  0  0  0  0
  4 28  2  0  0  0  0
  5 15  1  0  0  0  0
  5 19  2  0  0  0  0
  6 19  1  0  0  0  0
  6 20  1  0  0  0  0
  6 21  1  0  0  0  0
  7 18  1  0  0  0  0
  7 22  1  0  0  0  0
  7 53  1  0  0  0  0
  8 19  1  0  0  0  0
  8 28  1  0  0  0  0
  8 63  1  0  0  0  0
  9 27  3  0  0  0  0
 10 11  1  0  0  0  0
 10 12  1  0  0  0  0
 10 13  1  0  0  0  0
 10 14  1  0  0  0  0
 11 16  1  0  0  0  0
 11 17  1  0  0  0  0
 11 37  1  0  0  0  0
 12 15  1  0  0  0  0
 12 38  1  0  0  0  0
 12 39  1  0  0  0  0
 13 40  1  0  0  0  0
 13 41  1  0  0  0  0
 13 42  1  0  0  0  0
 14 43  1  0  0  0  0
 14 44  1  0  0  0  0
 14 45  1  0  0  0  0
 15 18  1  0  0  0  0
 15 46  1  0  0  0  0
 16 47  1  0  0  0  0
 16 48  1  0  0  0  0
 16 49  1  0  0  0  0
 17 50  1  0  0  0  0
 17 51  1  0  0  0  0
 17 52  1  0  0  0  0
 20 23  1  0  0  0  0
 20 54  1  0  0  0  0
 20 55  1  0  0  0  0
 21 24  1  0  0  0  0
 21 56  1  0  0  0  0
 21 57  1  0  0  0  0
 22 25  1  0  0  0  0
 22 27  1  0  0  0  0
 22 58  1  0  0  0  0
 23 59  1  0  0  0  0
 23 60  1  0  0  0  0
 24 61  1  0  0  0  0
 24 62  1  0  0  0  0
 25 26  1  0  0  0  0
 25 64  1  0  0  0  0
 25 65  1  0  0  0  0
 26 29  2  0  0  0  0
 26 30  1  0  0  0  0
 29 31  1  0  0  0  0
 29 66  1  0  0  0  0
 30 32  2  0  0  0  0
 30 67  1  0  0  0  0
 31 33  2  0  0  0  0
 31 68  1  0  0  0  0
 32 33  1  0  0  0  0
 32 69  1  0  0  0  0
 33 70  1  0  0  0  0
 34 35  1  0  0  0  0
 34 71  1  0  0  0  0
 34 72  1  0  0  0  0
 35 36  2  0  0  0  0
 35 73  1  0  0  0  0
 36 74  1  0  0  0  0
 36 75  1  0  0  0  0
M  END
> <PUBCHEM_COMPOUND_CID>
10141619

> <PUBCHEM_CONFORMER_RMSD>
1.4

> <PUBCHEM_CONFORMER_DIVERSEORDER>
1
73
24
3
25
70
54
41
35
66
75
67
78
74
48
37
32
30
60
42
62
71
34
9
51
58
12
47
50
57
53
36
15
21
13
76
56
49
55
79
19
69
43
11
38
5
65
40
7
63
22
29
17
77
59
72
6
16
61
8
28
18
52
31
68
20
26
39
4
23
64
45
33
2
27
10
46
14
44

> <PUBCHEM_MMFF94_PARTIAL_CHARGES>
39
1 -0.57
15 0.31
18 0.57
19 0.56
2 -0.56
20 0.37
21 0.37
22 0.5
23 0.28
24 0.28
25 0.14
26 -0.14
27 0.36
28 0.78
29 -0.15
3 -0.43
30 -0.15
31 -0.15
32 -0.15
33 -0.15
34 0.42
35 -0.29
36 -0.3
4 -0.57
5 -0.7
53 0.37
6 -0.79
63 0.37
66 0.15
67 0.15
68 0.15
69 0.15
7 -0.73
70 0.15
73 0.15
74 0.15
75 0.15
8 -0.49
9 -0.56

> <PUBCHEM_EFFECTIVE_ROTOR_COUNT>
16.2

> <PUBCHEM_PHARMACOPHORE_FEATURES>
11
1 1 acceptor
1 2 acceptor
1 36 hydrophobe
1 4 acceptor
1 7 donor
1 8 donor
1 9 acceptor
3 10 13 14 hydrophobe
3 11 16 17 hydrophobe
6 2 6 20 21 23 24 rings
6 26 29 30 31 32 33 rings

> <PUBCHEM_HEAVY_ATOM_COUNT>
36

> <PUBCHEM_ATOM_DEF_STEREO_COUNT>
0

> <PUBCHEM_ATOM_UDEF_STEREO_COUNT>
2

> <PUBCHEM_BOND_DEF_STEREO_COUNT>
0

> <PUBCHEM_BOND_UDEF_STEREO_COUNT>
0

> <PUBCHEM_ISOTOPIC_ATOM_COUNT>
0

> <PUBCHEM_COMPONENT_COUNT>
1

> <PUBCHEM_CACTVS_TAUTO_COUNT>
6

> <PUBCHEM_CONFORMER_ID>
009ABFB300000001

> <PUBCHEM_MMFF94_ENERGY>
102.3583

> <PUBCHEM_FEATURE_SELFOVERLAP>
55.854

> <PUBCHEM_SHAPE_FINGERPRINT>
10032420 55 17896600570488669645
10305334 12 17391039879729618753
11377469 6 16844738495642941230
12160290 23 17095814328986833338
12166972 35 17346317051375725758
12788726 201 16083928349353832395
15324884 4 17975156510391492418
15629462 23 17694520143378119982
15775530 1 18264511597007232794
161222 619 17974009745290971653
1813 80 13830124001664645867
19311894 1 17695632853144958460
2132832 1 16773525356668604434
23559900 14 17610871549631775971
376196 1 18049970528625231756
4015057 19 18269572592942343626
9981440 41 17909809266077701592

> <PUBCHEM_SHAPE_MULTIPOLES>
692.48
11.96
5.45
4.38
10.62
6.55
-4.2
0.27
10.35
-7.27
-2.6
-2.07
-3.14
6.62

> <PUBCHEM_SHAPE_SELFOVERLAP>
1403.431

> <PUBCHEM_SHAPE_VOLUME>
399.4

> <PUBCHEM_COORDINATE_TYPE>
2
5
10

$$$$
