101460591
  -OEChem-02172602513D

 42 44  0     1  0  0  0  0  0999 V2000
   -3.0116   -1.8606   -0.1609 O   0  0  0  0  0  0  0  0  0  0  0  0
    0.0232    3.0326   -0.2948 O   0  0  0  0  0  0  0  0  0  0  0  0
   -0.7625   -1.1299   -2.2027 O   0  0  0  0  0  0  0  0  0  0  0  0
   -0.6605    0.8806    0.7087 C   0  0  2  0  0  0  0  0  0  0  0  0
   -0.1072   -0.4848    1.1905 C   0  0  2  0  0  0  0  0  0  0  0  0
   -1.6248    0.1916   -0.3197 C   0  0  2  0  0  0  0  0  0  0  0  0
    0.5023   -1.0642   -0.1183 C   0  0  2  0  0  0  0  0  0  0  0  0
   -2.4348   -0.7892    0.5678 C   0  0  2  0  0  0  0  0  0  0  0  0
   -1.3712   -1.3079    1.5572 C   0  0  0  0  0  0  0  0  0  0  0  0
    0.5032    1.7741    0.1735 C   0  0  1  0  0  0  0  0  0  0  0  0
    1.7484   -0.3161   -0.6060 C   0  0  1  0  0  0  0  0  0  0  0  0
   -0.6471   -0.7269   -1.0555 C   0  0  0  0  0  0  0  0  0  0  0  0
    1.4088    1.1535   -0.8938 C   0  0  0  0  0  0  0  0  0  0  0  0
   -1.3860    1.6836    1.8112 C   0  0  0  0  0  0  0  0  0  0  0  0
   -2.4539    1.0644   -1.2322 C   0  0  0  0  0  0  0  0  0  0  0  0
    2.9128   -0.4431    0.3763 C   0  0  0  0  0  0  0  0  0  0  0  0
    3.2063   -1.9118    0.6716 C   0  0  0  0  0  0  0  0  0  0  0  0
    4.1547    0.2542   -0.1729 C   0  0  0  0  0  0  0  0  0  0  0  0
    0.5982   -0.4317    2.0229 H   0  0  0  0  0  0  0  0  0  0  0  0
    0.6250   -2.1498   -0.0736 H   0  0  0  0  0  0  0  0  0  0  0  0
   -3.2496   -0.2825    1.0946 H   0  0  0  0  0  0  0  0  0  0  0  0
   -1.1977   -2.3869    1.4873 H   0  0  0  0  0  0  0  0  0  0  0  0
   -1.6778   -1.0898    2.5862 H   0  0  0  0  0  0  0  0  0  0  0  0
    1.1467    2.0058    1.0336 H   0  0  0  0  0  0  0  0  0  0  0  0
    2.0563   -0.7630   -1.5627 H   0  0  0  0  0  0  0  0  0  0  0  0
    2.2850    1.7864   -1.0577 H   0  0  0  0  0  0  0  0  0  0  0  0
    0.8859    1.2129   -1.8594 H   0  0  0  0  0  0  0  0  0  0  0  0
   -1.8885    2.5605    1.3892 H   0  0  0  0  0  0  0  0  0  0  0  0
   -0.6692    2.0376    2.5613 H   0  0  0  0  0  0  0  0  0  0  0  0
   -2.1439    1.1183    2.3574 H   0  0  0  0  0  0  0  0  0  0  0  0
   -3.1077    1.7298   -0.6601 H   0  0  0  0  0  0  0  0  0  0  0  0
   -3.0861    0.4583   -1.8904 H   0  0  0  0  0  0  0  0  0  0  0  0
   -1.8191    1.6811   -1.8765 H   0  0  0  0  0  0  0  0  0  0  0  0
    2.6712    0.0430    1.3288 H   0  0  0  0  0  0  0  0  0  0  0  0
   -2.3047   -2.4478   -0.4762 H   0  0  0  0  0  0  0  0  0  0  0  0
    0.7943    3.5671   -0.5502 H   0  0  0  0  0  0  0  0  0  0  0  0
    3.3568   -2.4844   -0.2500 H   0  0  0  0  0  0  0  0  0  0  0  0
    2.4029   -2.3823    1.2462 H   0  0  0  0  0  0  0  0  0  0  0  0
    4.1160   -2.0103    1.2748 H   0  0  0  0  0  0  0  0  0  0  0  0
    5.0373   -0.0057    0.4230 H   0  0  0  0  0  0  0  0  0  0  0  0
    4.0726    1.3436   -0.1268 H   0  0  0  0  0  0  0  0  0  0  0  0
    4.3601   -0.0392   -1.2080 H   0  0  0  0  0  0  0  0  0  0  0  0
  1  8  1  0  0  0  0
  1 35  1  0  0  0  0
  2 10  1  0  0  0  0
  2 36  1  0  0  0  0
  3 12  2  0  0  0  0
  4  5  1  0  0  0  0
  4  6  1  0  0  0  0
  4 10  1  0  0  0  0
  4 14  1  0  0  0  0
  5  7  1  0  0  0  0
  5  9  1  0  0  0  0
  5 19  1  0  0  0  0
  6  8  1  0  0  0  0
  6 12  1  0  0  0  0
  6 15  1  0  0  0  0
  7 11  1  0  0  0  0
  7 12  1  0  0  0  0
  7 20  1  0  0  0  0
  8  9  1  0  0  0  0
  8 21  1  0  0  0  0
  9 22  1  0  0  0  0
  9 23  1  0  0  0  0
 10 13  1  0  0  0  0
 10 24  1  0  0  0  0
 11 13  1  0  0  0  0
 11 16  1  0  0  0  0
 11 25  1  0  0  0  0
 13 26  1  0  0  0  0
 13 27  1  0  0  0  0
 14 28  1  0  0  0  0
 14 29  1  0  0  0  0
 14 30  1  0  0  0  0
 15 31  1  0  0  0  0
 15 32  1  0  0  0  0
 15 33  1  0  0  0  0
 16 17  1  0  0  0  0
 16 18  1  0  0  0  0
 16 34  1  0  0  0  0
 17 37  1  0  0  0  0
 17 38  1  0  0  0  0
 17 39  1  0  0  0  0
 18 40  1  0  0  0  0
 18 41  1  0  0  0  0
 18 42  1  0  0  0  0
M  END
> <PUBCHEM_COMPOUND_CID>
101460591

> <PUBCHEM_CONFORMER_RMSD>
0.6

> <PUBCHEM_CONFORMER_DIVERSEORDER>
1
2
3

> <PUBCHEM_MMFF94_PARTIAL_CHARGES>
10
1 -0.68
10 0.28
12 0.45
2 -0.68
3 -0.57
35 0.4
36 0.4
6 0.06
7 0.06
8 0.28

> <PUBCHEM_EFFECTIVE_ROTOR_COUNT>
2

> <PUBCHEM_PHARMACOPHORE_FEATURES>
8
1 1 acceptor
1 1 donor
1 2 acceptor
1 2 donor
1 3 acceptor
3 16 17 18 hydrophobe
7 4 5 6 7 8 9 12 rings
8 4 5 6 7 10 11 12 13 rings

> <PUBCHEM_HEAVY_ATOM_COUNT>
18

> <PUBCHEM_ATOM_DEF_STEREO_COUNT>
6

> <PUBCHEM_ATOM_UDEF_STEREO_COUNT>
1

> <PUBCHEM_BOND_DEF_STEREO_COUNT>
0

> <PUBCHEM_BOND_UDEF_STEREO_COUNT>
0

> <PUBCHEM_ISOTOPIC_ATOM_COUNT>
0

> <PUBCHEM_COMPONENT_COUNT>
1

> <PUBCHEM_CACTVS_TAUTO_COUNT>
2

> <PUBCHEM_CONFORMER_ID>
060C2A6F00000001

> <PUBCHEM_MMFF94_ENERGY>
78.7235

> <PUBCHEM_FEATURE_SELFOVERLAP>
42.374

> <PUBCHEM_SHAPE_FINGERPRINT>
10863032 1 18260540095929075117
10948715 1 17680700424340523493
11578080 2 17701791449473668913
12423570 1 17846511360512602327
12491281 212 17916023447709249232
13024252 1 17603589594909073683
13172582 1 17774728652818552742
14142880 1 18129664089057322088
144361 1 18055055580597469697
14713566 1 18116422640237107067
14817 1 17540016842219668233
15375462 478 18272939340105785458
16945 1 18122069693307946500
200 152 18261107500201828426
20525323 117 17988084370156693448
21296965 67 18342454880455845786
21501502 16 18261966261679754629
21524375 3 17548692981079674072
22112679 90 18197805299796384888
22344851 12 17048553084650601693
22802520 49 17824543200031243995
23388829 49 18270686475451323712
23402539 116 18198330772255318157
23419403 2 17986080076619041049
23559900 14 18261662672475567386
2748010 2 18410292544798450396
369184 2 18187930538717406570
53812654 25 17631175370982102982

> <PUBCHEM_SHAPE_MULTIPOLES>
352.82
4.55
2.2
1.53
4.11
0.89
-0.09
-1.34
0.05
-0.39
0.22
-0.8
-0.09
-0.32

> <PUBCHEM_SHAPE_SELFOVERLAP>
762.711

> <PUBCHEM_SHAPE_VOLUME>
199.1

> <PUBCHEM_COORDINATE_TYPE>
2
5
10

$$$$
