6432468
  -OEChem-02172602373D

 31 31  0     1  0  0  0  0  0999 V2000
   -0.3252   -2.4112    0.3132 O   0  0  0  0  0  0  0  0  0  0  0  0
   -0.6680   -0.0259    0.4960 C   0  0  1  0  0  0  0  0  0  0  0  0
    0.2132   -1.1486   -0.0756 C   0  0  1  0  0  0  0  0  0  0  0  0
   -0.0481    1.3524    0.2316 C   0  0  0  0  0  0  0  0  0  0  0  0
    2.2900    0.3223    0.1948 C   0  0  2  0  0  0  0  0  0  0  0  0
    1.6526   -1.0506    0.4369 C   0  0  0  0  0  0  0  0  0  0  0  0
    1.3897    1.4382    0.7414 C   0  0  0  0  0  0  0  0  0  0  0  0
   -2.0880   -0.0871   -0.0734 C   0  0  0  0  0  0  0  0  0  0  0  0
    2.6274    0.5372   -1.2828 C   0  0  0  0  0  0  0  0  0  0  0  0
   -2.9781    0.9516    0.6024 C   0  0  0  0  0  0  0  0  0  0  0  0
   -2.0656    0.1216   -1.5845 C   0  0  0  0  0  0  0  0  0  0  0  0
   -0.7385   -0.1713    1.5838 H   0  0  0  0  0  0  0  0  0  0  0  0
    0.2474   -1.1358   -1.1669 H   0  0  0  0  0  0  0  0  0  0  0  0
   -0.6179    2.1414    0.7336 H   0  0  0  0  0  0  0  0  0  0  0  0
   -0.0334    1.6003   -0.8330 H   0  0  0  0  0  0  0  0  0  0  0  0
    3.2391    0.3554    0.7459 H   0  0  0  0  0  0  0  0  0  0  0  0
    2.2604   -1.8443   -0.0162 H   0  0  0  0  0  0  0  0  0  0  0  0
    1.6638   -1.2635    1.5148 H   0  0  0  0  0  0  0  0  0  0  0  0
    1.8107    2.4201    0.4939 H   0  0  0  0  0  0  0  0  0  0  0  0
    1.3768    1.3747    1.8374 H   0  0  0  0  0  0  0  0  0  0  0  0
   -2.5181   -1.0749    0.1341 H   0  0  0  0  0  0  0  0  0  0  0  0
    3.1239    1.5027   -1.4269 H   0  0  0  0  0  0  0  0  0  0  0  0
    3.3098   -0.2425   -1.6378 H   0  0  0  0  0  0  0  0  0  0  0  0
    1.7399    0.5198   -1.9220 H   0  0  0  0  0  0  0  0  0  0  0  0
   -2.7444    1.9753    0.2941 H   0  0  0  0  0  0  0  0  0  0  0  0
   -4.0260    0.7749    0.3338 H   0  0  0  0  0  0  0  0  0  0  0  0
   -2.9067    0.8898    1.6933 H   0  0  0  0  0  0  0  0  0  0  0  0
   -1.7325    1.1180   -1.8857 H   0  0  0  0  0  0  0  0  0  0  0  0
   -3.0885    0.0235   -1.9702 H   0  0  0  0  0  0  0  0  0  0  0  0
   -1.4785   -0.6272   -2.1197 H   0  0  0  0  0  0  0  0  0  0  0  0
   -0.3395   -2.4459    1.2848 H   0  0  0  0  0  0  0  0  0  0  0  0
  1  3  1  0  0  0  0
  1 31  1  0  0  0  0
  2  3  1  0  0  0  0
  2  4  1  0  0  0  0
  2  8  1  0  0  0  0
  2 12  1  0  0  0  0
  3  6  1  0  0  0  0
  3 13  1  0  0  0  0
  4  7  1  0  0  0  0
  4 14  1  0  0  0  0
  4 15  1  0  0  0  0
  5  6  1  0  0  0  0
  5  7  1  0  0  0  0
  5  9  1  0  0  0  0
  5 16  1  0  0  0  0
  6 17  1  0  0  0  0
  6 18  1  0  0  0  0
  7 19  1  0  0  0  0
  7 20  1  0  0  0  0
  8 10  1  0  0  0  0
  8 11  1  0  0  0  0
  8 21  1  0  0  0  0
  9 22  1  0  0  0  0
  9 23  1  0  0  0  0
  9 24  1  0  0  0  0
 10 25  1  0  0  0  0
 10 26  1  0  0  0  0
 10 27  1  0  0  0  0
 11 28  1  0  0  0  0
 11 29  1  0  0  0  0
 11 30  1  0  0  0  0
M  END
> <PUBCHEM_COMPOUND_CID>
6432468

> <PUBCHEM_CONFORMER_RMSD>
0.6

> <PUBCHEM_CONFORMER_DIVERSEORDER>
1
7
3
2
6
4
5

> <PUBCHEM_MMFF94_PARTIAL_CHARGES>
3
1 -0.68
3 0.28
31 0.4

> <PUBCHEM_EFFECTIVE_ROTOR_COUNT>
2.2

> <PUBCHEM_PHARMACOPHORE_FEATURES>
4
1 1 acceptor
1 1 donor
3 8 10 11 hydrophobe
6 2 3 4 5 6 7 rings

> <PUBCHEM_HEAVY_ATOM_COUNT>
11

> <PUBCHEM_ATOM_DEF_STEREO_COUNT>
3

> <PUBCHEM_ATOM_UDEF_STEREO_COUNT>
0

> <PUBCHEM_BOND_DEF_STEREO_COUNT>
0

> <PUBCHEM_BOND_UDEF_STEREO_COUNT>
0

> <PUBCHEM_ISOTOPIC_ATOM_COUNT>
0

> <PUBCHEM_COMPONENT_COUNT>
1

> <PUBCHEM_CACTVS_TAUTO_COUNT>
1

> <PUBCHEM_CONFORMER_ID>
006226D400000001

> <PUBCHEM_MMFF94_ENERGY>
22.3249

> <PUBCHEM_FEATURE_SELFOVERLAP>
20.297

> <PUBCHEM_SHAPE_FINGERPRINT>
10353120 184 18201168662763065348
11031198 65 18336834087173938493
12932764 1 18202279187008741705
13380535 239 17544481207146840164
15310529 11 16877659084611048272
15775835 57 18412825772138490789
16945 1 18410851079351307736
18185500 45 18055342544489533275
20653085 51 17561094626095058665
21040471 1 18337669818900203506
23235685 24 18335707143257778952
23419403 2 12621802804527604088
23552423 10 18048883996023951579
23559900 14 18341904030686366148
2748010 2 17980479284730240416
4369600 1 18273495671852259304
5084963 1 17821721741187656299
528886 8 18411981342966035281
63268167 104 18271805675024698449
81228 2 17757552228198792051

> <PUBCHEM_SHAPE_MULTIPOLES>
220.51
3.86
1.71
1.14
0.79
0.68
-0.5
-1.05
-0.64
-0.18
0.39
0.08
-0.13
-0.21

> <PUBCHEM_SHAPE_SELFOVERLAP>
427.45

> <PUBCHEM_SHAPE_VOLUME>
134

> <PUBCHEM_COORDINATE_TYPE>
2
5
10

$$$$
