44257652
  -OEChem-02172602573D

 47 50  0     1  0  0  0  0  0999 V2000
    3.9685    0.0549   -1.4907 O   0  0  0  0  0  0  0  0  0  0  0  0
    3.8093    0.2971    2.1739 O   0  0  0  0  0  0  0  0  0  0  0  0
    6.4154   -0.9469    1.7011 O   0  0  0  0  0  0  0  0  0  0  0  0
    5.9851   -1.8648   -0.8636 O   0  0  0  0  0  0  0  0  0  0  0  0
    1.5775    2.5172    0.0557 O   0  0  0  0  0  0  0  0  0  0  0  0
   -2.0901   -0.6363   -0.1148 O   0  0  0  0  0  0  0  0  0  0  0  0
    2.3863   -2.1618   -0.4182 O   0  0  0  0  0  0  0  0  0  0  0  0
   -0.9169    3.2510    0.2208 O   0  0  0  0  0  0  0  0  0  0  0  0
   -8.3711   -1.3177    0.0543 O   0  0  0  0  0  0  0  0  0  0  0  0
    4.2126   -0.2732    0.9291 C   0  0  1  0  0  0  0  0  0  0  0  0
    3.4781    0.4602   -0.2077 C   0  0  2  0  0  0  0  0  0  0  0  0
    5.7282   -0.1119    0.7729 C   0  0  2  0  0  0  0  0  0  0  0  0
    6.1806   -0.4671   -0.6415 C   0  0  2  0  0  0  0  0  0  0  0  0
    5.3636    0.3094   -1.6661 C   0  0  0  0  0  0  0  0  0  0  0  0
    1.9863    0.1910   -0.1803 C   0  0  0  0  0  0  0  0  0  0  0  0
    1.0864    1.2492   -0.0476 C   0  0  0  0  0  0  0  0  0  0  0  0
    1.5179   -1.1192   -0.2882 C   0  0  0  0  0  0  0  0  0  0  0  0
   -0.2854    0.9869   -0.0240 C   0  0  0  0  0  0  0  0  0  0  0  0
   -0.7550   -0.3210   -0.1321 C   0  0  0  0  0  0  0  0  0  0  0  0
    0.1470   -1.3770   -0.2641 C   0  0  0  0  0  0  0  0  0  0  0  0
   -1.2585    2.0810    0.1164 C   0  0  0  0  0  0  0  0  0  0  0  0
   -3.0104    0.3937    0.0068 C   0  0  0  0  0  0  0  0  0  0  0  0
   -2.6826    1.6901    0.1256 C   0  0  0  0  0  0  0  0  0  0  0  0
   -4.4167   -0.0567    0.0185 C   0  0  0  0  0  0  0  0  0  0  0  0
   -5.3062    0.4088   -0.9500 C   0  0  0  0  0  0  0  0  0  0  0  0
   -4.8561   -0.9464    0.9988 C   0  0  0  0  0  0  0  0  0  0  0  0
   -6.6349   -0.0152   -0.9382 C   0  0  0  0  0  0  0  0  0  0  0  0
   -6.1849   -1.3704    1.0108 C   0  0  0  0  0  0  0  0  0  0  0  0
   -7.0742   -0.9048    0.0423 C   0  0  0  0  0  0  0  0  0  0  0  0
    3.9918   -1.3403    0.9933 H   0  0  0  0  0  0  0  0  0  0  0  0
    3.6686    1.5359   -0.1110 H   0  0  0  0  0  0  0  0  0  0  0  0
    6.0112    0.9223    1.0062 H   0  0  0  0  0  0  0  0  0  0  0  0
    7.2512   -0.2680   -0.7603 H   0  0  0  0  0  0  0  0  0  0  0  0
    5.6188   -0.0132   -2.6807 H   0  0  0  0  0  0  0  0  0  0  0  0
    5.5489    1.3872   -1.5957 H   0  0  0  0  0  0  0  0  0  0  0  0
    4.0306    1.2439    2.1586 H   0  0  0  0  0  0  0  0  0  0  0  0
    7.3689   -0.8054    1.5733 H   0  0  0  0  0  0  0  0  0  0  0  0
    6.2902   -2.0633   -1.7653 H   0  0  0  0  0  0  0  0  0  0  0  0
   -0.2235   -2.3958   -0.3478 H   0  0  0  0  0  0  0  0  0  0  0  0
    0.8576    3.1607    0.1376 H   0  0  0  0  0  0  0  0  0  0  0  0
   -3.4206    2.4774    0.2320 H   0  0  0  0  0  0  0  0  0  0  0  0
    1.8815   -2.9910   -0.4772 H   0  0  0  0  0  0  0  0  0  0  0  0
   -4.9816    1.0989   -1.7252 H   0  0  0  0  0  0  0  0  0  0  0  0
   -4.1763   -1.3168    1.7623 H   0  0  0  0  0  0  0  0  0  0  0  0
   -7.3229    0.3502   -1.6957 H   0  0  0  0  0  0  0  0  0  0  0  0
   -6.5149   -2.0631    1.7803 H   0  0  0  0  0  0  0  0  0  0  0  0
   -8.5001   -1.9297    0.7993 H   0  0  0  0  0  0  0  0  0  0  0  0
  1 11  1  0  0  0  0
  1 14  1  0  0  0  0
  2 10  1  0  0  0  0
  2 36  1  0  0  0  0
  3 12  1  0  0  0  0
  3 37  1  0  0  0  0
  4 13  1  0  0  0  0
  4 38  1  0  0  0  0
  5 16  1  0  0  0  0
  5 40  1  0  0  0  0
  6 19  1  0  0  0  0
  6 22  1  0  0  0  0
  7 17  1  0  0  0  0
  7 42  1  0  0  0  0
  8 21  2  0  0  0  0
  9 29  1  0  0  0  0
  9 47  1  0  0  0  0
 10 11  1  0  0  0  0
 10 12  1  0  0  0  0
 10 30  1  0  0  0  0
 11 15  1  0  0  0  0
 11 31  1  0  0  0  0
 12 13  1  0  0  0  0
 12 32  1  0  0  0  0
 13 14  1  0  0  0  0
 13 33  1  0  0  0  0
 14 34  1  0  0  0  0
 14 35  1  0  0  0  0
 15 16  2  0  0  0  0
 15 17  1  0  0  0  0
 16 18  1  0  0  0  0
 17 20  2  0  0  0  0
 18 19  2  0  0  0  0
 18 21  1  0  0  0  0
 19 20  1  0  0  0  0
 20 39  1  0  0  0  0
 21 23  1  0  0  0  0
 22 23  2  0  0  0  0
 22 24  1  0  0  0  0
 23 41  1  0  0  0  0
 24 25  2  0  0  0  0
 24 26  1  0  0  0  0
 25 27  1  0  0  0  0
 25 43  1  0  0  0  0
 26 28  2  0  0  0  0
 26 44  1  0  0  0  0
 27 29  2  0  0  0  0
 27 45  1  0  0  0  0
 28 29  1  0  0  0  0
 28 46  1  0  0  0  0
M  END
> <PUBCHEM_COMPOUND_CID>
44257652

> <PUBCHEM_CONFORMER_RMSD>
0.8

> <PUBCHEM_CONFORMER_DIVERSEORDER>
1
4
8
9
5
7
2
3
6

> <PUBCHEM_MMFF94_PARTIAL_CHARGES>
41
1 -0.56
10 0.28
11 0.42
12 0.28
13 0.28
14 0.28
15 -0.14
16 0.08
17 0.08
18 0.09
19 0.08
2 -0.68
20 -0.15
21 0.47
22 0.05
23 -0.14
24 0.03
25 -0.15
26 -0.15
27 -0.15
28 -0.15
29 0.08
3 -0.68
36 0.4
37 0.4
38 0.4
39 0.15
4 -0.68
40 0.45
41 0.15
42 0.45
43 0.15
44 0.15
45 0.15
46 0.15
47 0.45
5 -0.53
6 -0.16
7 -0.53
8 -0.57
9 -0.53

> <PUBCHEM_EFFECTIVE_ROTOR_COUNT>
3.2

> <PUBCHEM_PHARMACOPHORE_FEATURES>
16
1 1 acceptor
1 2 acceptor
1 2 donor
1 3 acceptor
1 3 donor
1 4 acceptor
1 4 donor
1 5 donor
1 6 acceptor
1 7 donor
1 8 acceptor
1 9 donor
6 1 10 11 12 13 14 rings
6 15 16 17 18 19 20 rings
6 24 25 26 27 28 29 rings
6 6 18 19 21 22 23 rings

> <PUBCHEM_HEAVY_ATOM_COUNT>
29

> <PUBCHEM_ATOM_DEF_STEREO_COUNT>
3

> <PUBCHEM_ATOM_UDEF_STEREO_COUNT>
1

> <PUBCHEM_BOND_DEF_STEREO_COUNT>
0

> <PUBCHEM_BOND_UDEF_STEREO_COUNT>
0

> <PUBCHEM_ISOTOPIC_ATOM_COUNT>
0

> <PUBCHEM_COMPONENT_COUNT>
1

> <PUBCHEM_CACTVS_TAUTO_COUNT>
57

> <PUBCHEM_CONFORMER_ID>
02A3517400000001

> <PUBCHEM_MMFF94_ENERGY>
93.1716

> <PUBCHEM_FEATURE_SELFOVERLAP>
81.247

> <PUBCHEM_SHAPE_FINGERPRINT>
10 15 18340196479984341376
10076449 9 17632307753107613740
106641 1 18410566319537057864
11488393 25 17272305547612992038
11524674 6 18273215331301504671
11646440 116 18059859480011437777
11719270 70 18334573529542823690
11796584 16 16950284013906555811
11963148 33 18408880758821064587
12166972 35 17821451278444250989
12236239 1 17676206857977996908
12516196 113 18343584049460652037
12788726 201 18334012752937293585
13140716 1 18197211662385698458
13533116 47 15913056391661038982
13540713 4 17914051997801677364
13685833 64 18411420635460276369
13782708 43 17774444876140486814
13862211 1 18412263939076831565
13914758 101 16081364120696703749
14294032 229 18046636607264129477
14849402 71 16199858596043423208
15131766 46 13972810988792704922
15183329 4 16081081576647643521
15301273 46 17846781785028914849
15927050 60 17692816303770750284
16087824 20 18267587902527421481
17349148 13 18114468885721609444
17492 89 18122063096576569442
18222031 100 18413108376675938313
18681886 176 18334860532875232188
19841028 212 17168973505760419194
20028762 73 18202004351877722639
20505436 4 12607392313978769428
21033648 29 17417796306412881352
21033650 10 16515677807303444397
21150785 3 17313107470609930660
21267235 1 18412832395568710005
21781051 124 18261403281387853555
21792934 111 18411971473216150361
21792961 116 18187362100191368047
22149856 69 18200888283113434713
22224240 67 16845570929098235423
22956985 138 17902787467111929074
23198884 109 15502093051581068509
23522609 53 18122942838638031377
23536379 177 16226043388486924309
23559900 14 18262237854216714329
23569914 152 12329518202771937075
23569917 315 18262239924228142154
23569943 247 17487074266321393750
23845131 108 17052480093482968593
2747138 104 18343304794765613323
3004659 81 18040716987019967717
3178227 256 18411708715991277955
335352 9 18411703226616885495
3383291 50 18410009957531309819
3411729 13 18196365052014435320
34797466 226 17489594485091034996
3633792 109 16153419515574219417
4098825 35 16515957087092242247
4340502 62 14476967787022087765
439807 62 17458631168321992707
465052 167 18260268568297101594
5104073 3 18128819633872105883
58260988 647 16055777364744153662
59682541 52 14490182791912400160
59755656 215 18409449167635006663
59755656 520 17095239259332243139
8863177 126 17970921187701705067
9663363 56 18412819197081578681

> <PUBCHEM_SHAPE_MULTIPOLES>
543.98
19.31
2.01
1.21
13.79
1.12
-0.19
-9.38
0.19
0.29
-0.13
-1.54
-0.15
0.46

> <PUBCHEM_SHAPE_SELFOVERLAP>
1207.386

> <PUBCHEM_SHAPE_VOLUME>
286.9

> <PUBCHEM_COORDINATE_TYPE>
2
5
10

$$$$
