102068947
  -OEChem-02172602433D

 34 35  0     0  0  0  0  0  0999 V2000
    0.1222    2.4196    2.2515 Br  0  0  0  0  0  0  0  0  0  0  0  0
   -0.5719    2.6550   -2.3810 Br  0  0  0  0  0  0  0  0  0  0  0  0
   -4.8160   -2.4386   -0.9076 F   0  0  0  0  0  0  0  0  0  0  0  0
   -5.4073   -1.7936    1.0830 F   0  0  0  0  0  0  0  0  0  0  0  0
   -5.9715   -0.6151   -0.6480 F   0  0  0  0  0  0  0  0  0  0  0  0
    5.1232   -2.2092    0.8808 F   0  0  0  0  0  0  0  0  0  0  0  0
    5.1490   -1.9069   -1.2722 F   0  0  0  0  0  0  0  0  0  0  0  0
    6.1132   -0.4686    0.0335 F   0  0  0  0  0  0  0  0  0  0  0  0
    0.0465    1.6844    0.3260 C   0  0  0  0  0  0  0  0  0  0  0  0
   -1.2885    0.8777    0.2071 C   0  0  0  0  0  0  0  0  0  0  0  0
    1.3270    0.9271    0.2206 C   0  0  0  0  0  0  0  0  0  0  0  0
   -0.1218    3.0046   -0.5082 C   0  0  0  0  0  0  0  0  0  0  0  0
   -1.3364   -0.2802   -0.5692 C   0  0  0  0  0  0  0  0  0  0  0  0
    1.6132   -0.0886    1.1329 C   0  0  0  0  0  0  0  0  0  0  0  0
   -2.4305    1.3154    0.8778 C   0  0  0  0  0  0  0  0  0  0  0  0
    2.2380    1.2335   -0.7902 C   0  0  0  0  0  0  0  0  0  0  0  0
   -3.6683   -0.5624   -0.0046 C   0  0  0  0  0  0  0  0  0  0  0  0
    3.7213   -0.4910    0.0236 C   0  0  0  0  0  0  0  0  0  0  0  0
   -2.5263   -1.0003   -0.6751 C   0  0  0  0  0  0  0  0  0  0  0  0
    2.8103   -0.7976    1.0345 C   0  0  0  0  0  0  0  0  0  0  0  0
   -3.6205    0.5954    0.7719 C   0  0  0  0  0  0  0  0  0  0  0  0
    3.4351    0.5247   -0.8886 C   0  0  0  0  0  0  0  0  0  0  0  0
   -4.9396   -1.3341   -0.1152 C   0  0  0  0  0  0  0  0  0  0  0  0
    4.9998   -1.2512   -0.0834 C   0  0  0  0  0  0  0  0  0  0  0  0
    0.7781    3.6283   -0.5064 H   0  0  0  0  0  0  0  0  0  0  0  0
   -0.9549    3.6196   -0.1489 H   0  0  0  0  0  0  0  0  0  0  0  0
   -0.4661   -0.6376   -1.1119 H   0  0  0  0  0  0  0  0  0  0  0  0
    0.9129   -0.3721    1.9142 H   0  0  0  0  0  0  0  0  0  0  0  0
   -2.4627    2.2350    1.4519 H   0  0  0  0  0  0  0  0  0  0  0  0
    2.0771    2.0223   -1.5137 H   0  0  0  0  0  0  0  0  0  0  0  0
   -2.5432   -1.8981   -1.2867 H   0  0  0  0  0  0  0  0  0  0  0  0
    3.0112   -1.5895    1.7507 H   0  0  0  0  0  0  0  0  0  0  0  0
   -4.5083    0.9495    1.2891 H   0  0  0  0  0  0  0  0  0  0  0  0
    4.1408    0.7724   -1.6773 H   0  0  0  0  0  0  0  0  0  0  0  0
  1  9  1  0  0  0  0
  2 12  1  0  0  0  0
  3 23  1  0  0  0  0
  4 23  1  0  0  0  0
  5 23  1  0  0  0  0
  6 24  1  0  0  0  0
  7 24  1  0  0  0  0
  8 24  1  0  0  0  0
  9 10  1  0  0  0  0
  9 11  1  0  0  0  0
  9 12  1  0  0  0  0
 10 13  2  0  0  0  0
 10 15  1  0  0  0  0
 11 14  2  0  0  0  0
 11 16  1  0  0  0  0
 12 25  1  0  0  0  0
 12 26  1  0  0  0  0
 13 19  1  0  0  0  0
 13 27  1  0  0  0  0
 14 20  1  0  0  0  0
 14 28  1  0  0  0  0
 15 21  2  0  0  0  0
 15 29  1  0  0  0  0
 16 22  2  0  0  0  0
 16 30  1  0  0  0  0
 17 19  2  0  0  0  0
 17 21  1  0  0  0  0
 17 23  1  0  0  0  0
 18 20  2  0  0  0  0
 18 22  1  0  0  0  0
 18 24  1  0  0  0  0
 19 31  1  0  0  0  0
 20 32  1  0  0  0  0
 21 33  1  0  0  0  0
 22 34  1  0  0  0  0
M  END
> <PUBCHEM_COMPOUND_CID>
102068947

> <PUBCHEM_CONFORMER_RMSD>
0.8

> <PUBCHEM_CONFORMER_DIVERSEORDER>
1
3
2

> <PUBCHEM_MMFF94_PARTIAL_CHARGES>
32
1 -0.23
10 -0.14
11 -0.14
12 0.23
13 -0.15
14 -0.15
15 -0.15
16 -0.15
17 -0.14
18 -0.14
19 -0.15
2 -0.23
20 -0.15
21 -0.15
22 -0.15
23 1.16
24 1.16
27 0.15
28 0.15
29 0.15
3 -0.34
30 0.15
31 0.15
32 0.15
33 0.15
34 0.15
4 -0.34
5 -0.34
6 -0.34
7 -0.34
8 -0.34
9 0.52

> <PUBCHEM_EFFECTIVE_ROTOR_COUNT>
5

> <PUBCHEM_PHARMACOPHORE_FEATURES>
4
1 1 hydrophobe
1 2 hydrophobe
6 10 13 15 17 19 21 rings
6 11 14 16 18 20 22 rings

> <PUBCHEM_HEAVY_ATOM_COUNT>
24

> <PUBCHEM_ATOM_DEF_STEREO_COUNT>
0

> <PUBCHEM_ATOM_UDEF_STEREO_COUNT>
0

> <PUBCHEM_BOND_DEF_STEREO_COUNT>
0

> <PUBCHEM_BOND_UDEF_STEREO_COUNT>
0

> <PUBCHEM_ISOTOPIC_ATOM_COUNT>
0

> <PUBCHEM_COMPONENT_COUNT>
1

> <PUBCHEM_CACTVS_TAUTO_COUNT>
1

> <PUBCHEM_CONFORMER_ID>
061572D300000001

> <PUBCHEM_MMFF94_ENERGY>
65.1505

> <PUBCHEM_FEATURE_SELFOVERLAP>
20.298

> <PUBCHEM_SHAPE_FINGERPRINT>
10692045 39 10591777441519422580
11045515 52 17748827397274031052
11046707 91 18341048527864407280
11578080 2 18338779174414921137
12236239 1 18409453578597697832
12553582 1 18335967731798148699
12596602 18 15051733092422269518
12633257 1 15123501540687005754
12714826 92 18337660911054103100
12892183 10 15338569240526597192
13009979 54 18338812168933385625
13103583 49 17489038110283794019
13583140 156 16486684762660390113
13911987 19 16516271581893906638
13955234 65 17908428296542554817
14251764 30 18113904900734317739
14347332 77 18043526119307643202
14556957 393 17024050193490378396
14576447 43 18187365407374325106
14863182 85 16900444534556052831
15061688 2 8502654813616303296
15188451 53 16343411917347084639
15238133 3 11743833690667834322
15342816 4 18339654411734885620
17349148 13 17774446109286366719
17492 89 18051690238173527479
17804303 29 18130788975504525577
17980427 26 17126466638821889184
1813 80 18335150781826388348
18222031 100 18408877460337610203
193927 3 18412272739254064875
19784866 140 17749387044428684608
19784866 240 18409171017273595765
200 152 17749395827995747920
20388580 30 18261114109861078668
20832881 197 18342739641694429147
21033648 29 14548470106534704089
21267235 1 18412271639737168795
21637258 2 18341606014519077682
22620623 9 17968648307656008349
22950370 63 18410015437576490035
23402539 116 17967818202251932936
23559900 14 18262794211532025241
2838139 119 11674876718914007402
3004659 81 18333168371299543398
314194 84 18341617078508008051
3286 77 18202560704629222369
351380 3 18411418418719503731
4325135 7 18342175601125645972
46194498 28 16879067653906837325
463206 1 18271522095551728383
465052 167 18269281317130007183
497634 4 18270972220132500500
5104073 3 17416131796865721179
559249 180 18340486678145040339
59682541 52 14924487677065365730
70251023 43 18040716952739480428
7808743 9 10737287961121052789
7970288 3 18341891939394001087
9841814 1 17488753418060450609

> <PUBCHEM_SHAPE_MULTIPOLES>
462.15
11.75
2.85
1.64
1.09
1.01
0
-12.32
-0.99
-0.51
-0.48
-0.02
1.23
-0.32

> <PUBCHEM_SHAPE_SELFOVERLAP>
964.883

> <PUBCHEM_SHAPE_VOLUME>
270.4

> <PUBCHEM_COORDINATE_TYPE>
2
5
10

$$$$
