521318
  -OEChem-02172602253D

 52 55  0     1  0  0  0  0  0999 V2000
   -0.7789    0.6837    0.1564 C   0  0  2  0  0  0  0  0  0  0  0  0
    0.6112    0.5788   -0.5994 C   0  0  2  0  0  0  0  0  0  0  0  0
    1.3267   -0.8047   -0.4222 C   0  0  1  0  0  0  0  0  0  0  0  0
   -1.6501   -0.5407   -0.3218 C   0  0  2  0  0  0  0  0  0  0  0  0
    0.3988   -1.9942   -0.6767 C   0  0  0  0  0  0  0  0  0  0  0  0
   -3.1816   -0.4933    0.0261 C   0  0  0  0  0  0  0  0  0  0  0  0
    2.5212   -0.8407   -1.4007 C   0  0  0  0  0  0  0  0  0  0  0  0
   -0.9591   -1.8793    0.0165 C   0  0  0  0  0  0  0  0  0  0  0  0
    1.5859    1.7737   -0.3576 C   0  0  0  0  0  0  0  0  0  0  0  0
    3.5067    0.1019   -0.7110 C   0  0  1  0  0  0  0  0  0  0  0  0
   -1.4893    1.9971   -0.2719 C   0  0  0  0  0  0  0  0  0  0  0  0
    3.0122    1.5439   -0.9032 C   0  0  0  0  0  0  0  0  0  0  0  0
    2.1095   -0.8932    0.8734 C   0  0  0  0  0  0  0  0  0  0  0  0
   -3.7571    0.8901   -0.3680 C   0  0  0  0  0  0  0  0  0  0  0  0
   -0.5772    0.7288    1.6905 C   0  0  0  0  0  0  0  0  0  0  0  0
   -2.9542    2.0747    0.1522 C   0  0  0  0  0  0  0  0  0  0  0  0
    3.3343   -0.3667    0.7122 C   0  0  0  0  0  0  0  0  0  0  0  0
   -3.5120   -0.8115    1.4962 C   0  0  0  0  0  0  0  0  0  0  0  0
   -3.9439   -1.5454   -0.8245 C   0  0  0  0  0  0  0  0  0  0  0  0
    4.3970   -0.2030    1.7334 C   0  0  0  0  0  0  0  0  0  0  0  0
    0.3649    0.6411   -1.6724 H   0  0  0  0  0  0  0  0  0  0  0  0
   -1.6332   -0.4815   -1.4234 H   0  0  0  0  0  0  0  0  0  0  0  0
    0.8776   -2.9331   -0.3698 H   0  0  0  0  0  0  0  0  0  0  0  0
    0.2204   -2.0846   -1.7570 H   0  0  0  0  0  0  0  0  0  0  0  0
    2.2583   -0.5159   -2.4143 H   0  0  0  0  0  0  0  0  0  0  0  0
    2.9452   -1.8523   -1.4836 H   0  0  0  0  0  0  0  0  0  0  0  0
   -1.5658   -2.7250   -0.3218 H   0  0  0  0  0  0  0  0  0  0  0  0
   -0.8396   -2.0074    1.0963 H   0  0  0  0  0  0  0  0  0  0  0  0
    1.6790    1.9867    0.7114 H   0  0  0  0  0  0  0  0  0  0  0  0
    1.1819    2.6858   -0.8120 H   0  0  0  0  0  0  0  0  0  0  0  0
    4.5226   -0.0410   -1.0905 H   0  0  0  0  0  0  0  0  0  0  0  0
   -1.4448    2.0984   -1.3645 H   0  0  0  0  0  0  0  0  0  0  0  0
   -0.9639    2.8674    0.1399 H   0  0  0  0  0  0  0  0  0  0  0  0
    3.0216    1.7828   -1.9743 H   0  0  0  0  0  0  0  0  0  0  0  0
    3.6992    2.2483   -0.4188 H   0  0  0  0  0  0  0  0  0  0  0  0
    1.7267   -1.2849    1.8041 H   0  0  0  0  0  0  0  0  0  0  0  0
   -4.7946    0.9820   -0.0220 H   0  0  0  0  0  0  0  0  0  0  0  0
   -3.7961    0.9667   -1.4636 H   0  0  0  0  0  0  0  0  0  0  0  0
    0.1563    1.4836    1.9851 H   0  0  0  0  0  0  0  0  0  0  0  0
   -1.4832    1.0075    2.2273 H   0  0  0  0  0  0  0  0  0  0  0  0
   -0.2495   -0.2228    2.1090 H   0  0  0  0  0  0  0  0  0  0  0  0
   -3.0437    2.1469    1.2404 H   0  0  0  0  0  0  0  0  0  0  0  0
   -3.3886    2.9999   -0.2458 H   0  0  0  0  0  0  0  0  0  0  0  0
   -3.1994   -0.0308    2.1876 H   0  0  0  0  0  0  0  0  0  0  0  0
   -4.5956   -0.9157    1.6336 H   0  0  0  0  0  0  0  0  0  0  0  0
   -3.0595   -1.7542    1.8190 H   0  0  0  0  0  0  0  0  0  0  0  0
   -5.0289   -1.4201   -0.7241 H   0  0  0  0  0  0  0  0  0  0  0  0
   -3.7017   -1.4505   -1.8890 H   0  0  0  0  0  0  0  0  0  0  0  0
   -3.7128   -2.5696   -0.5155 H   0  0  0  0  0  0  0  0  0  0  0  0
    4.6516    0.8544    1.8538 H   0  0  0  0  0  0  0  0  0  0  0  0
    5.2991   -0.7458    1.4347 H   0  0  0  0  0  0  0  0  0  0  0  0
    4.0796   -0.5867    2.7084 H   0  0  0  0  0  0  0  0  0  0  0  0
  1  2  1  0  0  0  0
  1  4  1  0  0  0  0
  1 11  1  0  0  0  0
  1 15  1  0  0  0  0
  2  3  1  0  0  0  0
  2  9  1  0  0  0  0
  2 21  1  0  0  0  0
  3  5  1  0  0  0  0
  3  7  1  0  0  0  0
  3 13  1  0  0  0  0
  4  6  1  0  0  0  0
  4  8  1  0  0  0  0
  4 22  1  0  0  0  0
  5  8  1  0  0  0  0
  5 23  1  0  0  0  0
  5 24  1  0  0  0  0
  6 14  1  0  0  0  0
  6 18  1  0  0  0  0
  6 19  1  0  0  0  0
  7 10  1  0  0  0  0
  7 25  1  0  0  0  0
  7 26  1  0  0  0  0
  8 27  1  0  0  0  0
  8 28  1  0  0  0  0
  9 12  1  0  0  0  0
  9 29  1  0  0  0  0
  9 30  1  0  0  0  0
 10 12  1  0  0  0  0
 10 17  1  0  0  0  0
 10 31  1  0  0  0  0
 11 16  1  0  0  0  0
 11 32  1  0  0  0  0
 11 33  1  0  0  0  0
 12 34  1  0  0  0  0
 12 35  1  0  0  0  0
 13 17  2  0  0  0  0
 13 36  1  0  0  0  0
 14 16  1  0  0  0  0
 14 37  1  0  0  0  0
 14 38  1  0  0  0  0
 15 39  1  0  0  0  0
 15 40  1  0  0  0  0
 15 41  1  0  0  0  0
 16 42  1  0  0  0  0
 16 43  1  0  0  0  0
 17 20  1  0  0  0  0
 18 44  1  0  0  0  0
 18 45  1  0  0  0  0
 18 46  1  0  0  0  0
 19 47  1  0  0  0  0
 19 48  1  0  0  0  0
 19 49  1  0  0  0  0
 20 50  1  0  0  0  0
 20 51  1  0  0  0  0
 20 52  1  0  0  0  0
M  END
> <PUBCHEM_COMPOUND_CID>
521318

> <PUBCHEM_CONFORMER_RMSD>
0.6

> <PUBCHEM_CONFORMER_DIVERSEORDER>
1
21
14
26
30
15
17
29
5
23
27
2
7
10
20
8
28
22
16
12
9
11
13
19
6
4
25
18
3
24

> <PUBCHEM_MMFF94_PARTIAL_CHARGES>
6
10 0.14
13 -0.29
17 -0.28
20 0.14
3 0.14
36 0.15

> <PUBCHEM_EFFECTIVE_ROTOR_COUNT>
1.8

> <PUBCHEM_PHARMACOPHORE_FEATURES>
4
3 6 18 19 hydrophobe
6 1 2 3 4 5 8 rings
6 1 4 6 11 14 16 rings
8 2 3 7 9 10 12 13 17 rings

> <PUBCHEM_HEAVY_ATOM_COUNT>
20

> <PUBCHEM_ATOM_DEF_STEREO_COUNT>
0

> <PUBCHEM_ATOM_UDEF_STEREO_COUNT>
5

> <PUBCHEM_BOND_DEF_STEREO_COUNT>
0

> <PUBCHEM_BOND_UDEF_STEREO_COUNT>
0

> <PUBCHEM_ISOTOPIC_ATOM_COUNT>
0

> <PUBCHEM_COMPONENT_COUNT>
1

> <PUBCHEM_CACTVS_TAUTO_COUNT>
1

> <PUBCHEM_CONFORMER_ID>
0007F46600000001

> <PUBCHEM_MMFF94_ENERGY>
80.9245

> <PUBCHEM_FEATURE_SELFOVERLAP>
20.326

> <PUBCHEM_SHAPE_FINGERPRINT>
10062212 137 18261387832606111369
10646746 165 18271240526222133624
10759866 29 17968386735820887012
10863032 1 17458348584378263554
10967382 1 18267028443020298301
11132069 177 18202282506870599511
11578080 2 17845638348713367049
12236239 1 17967250893402409502
12251169 10 18334850619868789986
12403260 363 18409719690497294909
12403814 3 18409735075671464369
12553582 1 18340777043261033023
12592029 89 18261681367919606819
13134695 92 16660361468090439012
13140716 1 18194965372857194779
13221675 6 18410018761860149710
13224815 77 18131354111226768821
13296908 3 18272658900268836983
13538477 17 18188207727480545870
13581323 91 18411695495881383042
13583140 156 17240761847491022179
14144814 61 18334863809196475796
14178342 30 18268147543862178953
14289901 80 18341898476095984523
14787075 74 17631153363722639746
15196674 1 18410577292286935789
15309172 13 18342749511165654759
16752209 62 18411983559142799183
16945 1 18410859875381221327
17349148 13 18411974780287811278
17492 89 18334014973451800715
18186145 218 17775297035942604686
19050596 39 18186803556331144753
192875 21 18334564763519048300
200 152 18040991856210194627
20510252 161 18201443570829596257
20559304 39 18333450937335103758
20715895 44 18045770201017969405
21069387 34 16732986405411306146
21267235 1 18336557078594132495
21501502 16 18334579040064570045
2334 1 17835524095335053551
23402539 116 18339348725726684422
23419403 2 16619486182513626860
23463225 33 18334012770116941356
23493267 7 18188223025779469059
23557571 272 17989483030599218811
23559900 14 18200879448798457238
2748010 2 18124885555355752958
296302 2 17095530607920996660
3286 77 17530961414645252738
474 4 17097223959334781588
5104073 3 18334016102932845161
7097593 13 17751067016766017698
77492 1 17822014189879641806
90525 40 18410859853985330863
9709674 26 18411427214796636967

> <PUBCHEM_SHAPE_MULTIPOLES>
411.59
7.37
2.09
1.36
0.02
0.34
-0.46
-0.28
-0.94
0.99
0.37
-0.67
-0.15
-0.32

> <PUBCHEM_SHAPE_SELFOVERLAP>
879.951

> <PUBCHEM_SHAPE_VOLUME>
227.1

> <PUBCHEM_COORDINATE_TYPE>
2
5
10

$$$$
