44258032
  -OEChem-02172602273D

 55 58  0     1  0  0  0  0  0999 V2000
    1.1972    1.5698   -0.7574 O   0  0  0  0  0  0  0  0  0  0  0  0
    0.5925    0.9116    1.4118 O   0  0  0  0  0  0  0  0  0  0  0  0
    1.8857    4.9416    0.4097 O   0  0  0  0  0  0  0  0  0  0  0  0
    3.8842    2.5128   -1.4257 O   0  0  0  0  0  0  0  0  0  0  0  0
    3.2331    1.6645    1.2714 O   0  0  0  0  0  0  0  0  0  0  0  0
   -1.6954   -1.6636    0.0992 O   0  0  0  0  0  0  0  0  0  0  0  0
   -1.8210    2.2699    1.1554 O   0  0  0  0  0  0  0  0  0  0  0  0
   -4.3523    2.3685    0.5092 O   0  0  0  0  0  0  0  0  0  0  0  0
    2.6942   -3.9009   -1.5578 O   0  0  0  0  0  0  0  0  0  0  0  0
   -6.2804   -1.6497   -1.1289 O   0  0  0  0  0  0  0  0  0  0  0  0
    3.9555   -4.3320    0.8817 O   0  0  0  0  0  0  0  0  0  0  0  0
    2.7234    3.7982    0.2580 C   0  0  2  0  0  0  0  0  0  0  0  0
    2.7697    3.3802   -1.2193 C   0  0  2  0  0  0  0  0  0  0  0  0
    2.2181    2.6637    1.1573 C   0  0  1  0  0  0  0  0  0  0  0  0
    1.4815    2.6568   -1.6467 C   0  0  1  0  0  0  0  0  0  0  0  0
    0.9590    2.0094    0.5798 C   0  0  1  0  0  0  0  0  0  0  0  0
    1.5774    2.0788   -3.0548 C   0  0  0  0  0  0  0  0  0  0  0  0
   -0.5462    0.2843    0.9544 C   0  0  0  0  0  0  0  0  0  0  0  0
   -0.5767   -1.0115    0.5934 C   0  0  0  0  0  0  0  0  0  0  0  0
   -1.7873    1.0876    0.8407 C   0  0  0  0  0  0  0  0  0  0  0  0
   -2.9742    0.3866    0.3278 C   0  0  0  0  0  0  0  0  0  0  0  0
   -2.8651   -0.9583   -0.0178 C   0  0  0  0  0  0  0  0  0  0  0  0
    0.6106   -1.8817    0.6658 C   0  0  0  0  0  0  0  0  0  0  0  0
   -4.1930    1.0549    0.1861 C   0  0  0  0  0  0  0  0  0  0  0  0
   -3.9761   -1.6453   -0.5081 C   0  0  0  0  0  0  0  0  0  0  0  0
    1.1008   -2.4894   -0.4899 C   0  0  0  0  0  0  0  0  0  0  0  0
    1.2438   -2.0979    1.8898 C   0  0  0  0  0  0  0  0  0  0  0  0
   -5.3028    0.3657   -0.3043 C   0  0  0  0  0  0  0  0  0  0  0  0
   -5.1948   -0.9817   -0.6507 C   0  0  0  0  0  0  0  0  0  0  0  0
    2.2244   -3.3133   -0.4221 C   0  0  0  0  0  0  0  0  0  0  0  0
    2.3672   -2.9220    1.9577 C   0  0  0  0  0  0  0  0  0  0  0  0
    2.8576   -3.5296    0.8018 C   0  0  0  0  0  0  0  0  0  0  0  0
    1.9894   -3.6281   -2.7675 C   0  0  0  0  0  0  0  0  0  0  0  0
    3.7298    4.0872    0.5852 H   0  0  0  0  0  0  0  0  0  0  0  0
    2.9128    4.2570   -1.8619 H   0  0  0  0  0  0  0  0  0  0  0  0
    2.0038    3.0279    2.1689 H   0  0  0  0  0  0  0  0  0  0  0  0
    0.6369    3.3573   -1.6203 H   0  0  0  0  0  0  0  0  0  0  0  0
    0.1905    2.7853    0.5675 H   0  0  0  0  0  0  0  0  0  0  0  0
    2.3289    1.2841   -3.1135 H   0  0  0  0  0  0  0  0  0  0  0  0
    1.8209    2.8542   -3.7872 H   0  0  0  0  0  0  0  0  0  0  0  0
    0.6234    1.6205   -3.3384 H   0  0  0  0  0  0  0  0  0  0  0  0
    2.2516    5.6497   -0.1473 H   0  0  0  0  0  0  0  0  0  0  0  0
    4.6880    3.0071   -1.1912 H   0  0  0  0  0  0  0  0  0  0  0  0
    4.0139    2.0848    1.6704 H   0  0  0  0  0  0  0  0  0  0  0  0
   -3.8943   -2.6949   -0.7789 H   0  0  0  0  0  0  0  0  0  0  0  0
    0.5728   -2.2827   -1.4155 H   0  0  0  0  0  0  0  0  0  0  0  0
    0.8730   -1.6396    2.8036 H   0  0  0  0  0  0  0  0  0  0  0  0
   -6.2521    0.8846   -0.4151 H   0  0  0  0  0  0  0  0  0  0  0  0
    2.8499   -3.0831    2.9179 H   0  0  0  0  0  0  0  0  0  0  0  0
   -3.5202    2.7417    0.8377 H   0  0  0  0  0  0  0  0  0  0  0  0
   -7.0370   -1.0392   -1.1622 H   0  0  0  0  0  0  0  0  0  0  0  0
    4.2579   -4.3641    1.8056 H   0  0  0  0  0  0  0  0  0  0  0  0
    2.4986   -4.1764   -3.5671 H   0  0  0  0  0  0  0  0  0  0  0  0
    2.0365   -2.5661   -3.0318 H   0  0  0  0  0  0  0  0  0  0  0  0
    0.9615   -4.0046   -2.7300 H   0  0  0  0  0  0  0  0  0  0  0  0
  1 15  1  0  0  0  0
  1 16  1  0  0  0  0
  2 16  1  0  0  0  0
  2 18  1  0  0  0  0
  3 12  1  0  0  0  0
  3 42  1  0  0  0  0
  4 13  1  0  0  0  0
  4 43  1  0  0  0  0
  5 14  1  0  0  0  0
  5 44  1  0  0  0  0
  6 19  1  0  0  0  0
  6 22  1  0  0  0  0
  7 20  2  0  0  0  0
  8 24  1  0  0  0  0
  8 50  1  0  0  0  0
  9 30  1  0  0  0  0
  9 33  1  0  0  0  0
 10 29  1  0  0  0  0
 10 51  1  0  0  0  0
 11 32  1  0  0  0  0
 11 52  1  0  0  0  0
 12 13  1  0  0  0  0
 12 14  1  0  0  0  0
 12 34  1  0  0  0  0
 13 15  1  0  0  0  0
 13 35  1  0  0  0  0
 14 16  1  0  0  0  0
 14 36  1  0  0  0  0
 15 17  1  0  0  0  0
 15 37  1  0  0  0  0
 16 38  1  0  0  0  0
 17 39  1  0  0  0  0
 17 40  1  0  0  0  0
 17 41  1  0  0  0  0
 18 19  2  0  0  0  0
 18 20  1  0  0  0  0
 19 23  1  0  0  0  0
 20 21  1  0  0  0  0
 21 22  1  0  0  0  0
 21 24  2  0  0  0  0
 22 25  2  0  0  0  0
 23 26  2  0  0  0  0
 23 27  1  0  0  0  0
 24 28  1  0  0  0  0
 25 29  1  0  0  0  0
 25 45  1  0  0  0  0
 26 30  1  0  0  0  0
 26 46  1  0  0  0  0
 27 31  2  0  0  0  0
 27 47  1  0  0  0  0
 28 29  2  0  0  0  0
 28 48  1  0  0  0  0
 30 32  2  0  0  0  0
 31 32  1  0  0  0  0
 31 49  1  0  0  0  0
 33 53  1  0  0  0  0
 33 54  1  0  0  0  0
 33 55  1  0  0  0  0
M  END
> <PUBCHEM_COMPOUND_CID>
44258032

> <PUBCHEM_CONFORMER_RMSD>
0.8

> <PUBCHEM_CONFORMER_DIVERSEORDER>
5
58
87
89
36
74
81
80
47
91
85
90
50
77
41
76
55
93
40
54
23
83
62
64
63
72
95
78
51
57
98
82
79
75
15
66
45
59
26
70
52
68
25
30
84
11
27
49
67
1
96
61
33
88
48
56
94
71
65
53
10
9
12
86
35
3
18
73
42
46
60
43
14
7
21
24
38
22
69
13
6
2
92
28
97
31
37
16
19
34
8
32
44
29
39
4
17
20

> <PUBCHEM_MMFF94_PARTIAL_CHARGES>
43
1 -0.56
10 -0.53
11 -0.53
12 0.28
13 0.28
14 0.28
15 0.28
16 0.56
18 0.09
19 0.05
2 -0.36
20 0.47
21 0.09
22 0.08
23 0.03
24 0.08
25 -0.15
26 -0.15
27 -0.15
28 -0.15
29 0.08
3 -0.68
30 0.08
31 -0.15
32 0.08
33 0.28
4 -0.68
42 0.4
43 0.4
44 0.4
45 0.15
46 0.15
47 0.15
48 0.15
49 0.15
5 -0.68
50 0.45
51 0.45
52 0.45
6 -0.16
7 -0.57
8 -0.53
9 -0.36

> <PUBCHEM_EFFECTIVE_ROTOR_COUNT>
5.2

> <PUBCHEM_PHARMACOPHORE_FEATURES>
18
1 1 acceptor
1 10 donor
1 11 donor
1 2 acceptor
1 3 acceptor
1 3 donor
1 4 acceptor
1 4 donor
1 5 acceptor
1 5 donor
1 6 acceptor
1 7 acceptor
1 8 donor
1 9 acceptor
6 1 12 13 14 15 16 rings
6 21 22 24 25 28 29 rings
6 23 26 27 30 31 32 rings
6 6 18 19 20 21 22 rings

> <PUBCHEM_HEAVY_ATOM_COUNT>
33

> <PUBCHEM_ATOM_DEF_STEREO_COUNT>
3

> <PUBCHEM_ATOM_UDEF_STEREO_COUNT>
2

> <PUBCHEM_BOND_DEF_STEREO_COUNT>
0

> <PUBCHEM_BOND_UDEF_STEREO_COUNT>
0

> <PUBCHEM_ISOTOPIC_ATOM_COUNT>
0

> <PUBCHEM_COMPONENT_COUNT>
1

> <PUBCHEM_CACTVS_TAUTO_COUNT>
69

> <PUBCHEM_CONFORMER_ID>
02A352F000000005

> <PUBCHEM_MMFF94_ENERGY>
115.8945

> <PUBCHEM_FEATURE_SELFOVERLAP>
91.444

> <PUBCHEM_SHAPE_FINGERPRINT>
10554248 39 18269536322876933383
10721379 63 18410583876830418459
10940486 97 18127690422930378319
11045515 52 17900538973725755002
11488393 25 18338245967441782379
11578080 2 17460577152597872038
11582403 64 16196461186902804344
12156800 1 15552448583625261470
12160290 23 17187026712839746458
12422481 6 17975940286193439888
12788726 201 17323237017733801771
133893 2 18334871493098632073
13540713 5 18272088284795837529
13681431 1 18337399223044245522
14114207 22 18186796998865617430
14955137 171 17692001192340060265
15439362 3 18261107495505895497
15475509 35 13182187383327285573
15664445 248 18267027141645999950
15775530 1 17969807300465169619
15961568 22 18267583508237171066
1813 80 18194682558103999147
20567600 347 18266742578608142503
20600515 1 17982724173878399011
21133665 82 18265337395276703332
21304303 282 17330250179889775318
21344244 246 18413113883293588526
22907989 373 16964081497523602398
23366157 5 18334007290002565483
23559900 14 18272081644349415443
23598288 3 16814613328577151176
24893989 43 16462405291325420893
25147074 1 18343305847549675841
26353 1 18048328746915302246
27425 322 17695899321880600573
3298306 158 18195247938702662506
340366 18 18122905322820776785
4017518 198 18198906002211042908
4280585 95 18121488055852126547
44802255 64 17391090483719686436
5081480 168 18116422657875932397
6669772 16 17701535345285181672
6700243 42 17411073742519712326
9981440 41 18119524598989150897

> <PUBCHEM_SHAPE_MULTIPOLES>
614.56
8.8
6.55
2.04
15.21
0.31
-1.29
1.16
-1.88
-10.42
-0.89
-2.02
0.47
-1.39

> <PUBCHEM_SHAPE_SELFOVERLAP>
1350.368

> <PUBCHEM_SHAPE_VOLUME>
328.8

> <PUBCHEM_COORDINATE_TYPE>
2
5
10

$$$$
