102213769
  -OEChem-02172602543D

 52 53  0     1  0  0  0  0  0999 V2000
   -3.1545    1.4891   -1.2575 O   0  0  0  0  0  0  0  0  0  0  0  0
    2.9982    1.7950   -1.4689 O   0  0  0  0  0  0  0  0  0  0  0  0
   -2.3845   -0.3340   -0.0090 C   0  0  0  0  0  0  0  0  0  0  0  0
   -1.9930    1.0140   -0.5358 C   0  0  2  0  0  0  0  0  0  0  0  0
   -1.3978   -1.2571    0.6388 C   0  0  0  0  0  0  0  0  0  0  0  0
   -3.6845   -0.5456   -0.2417 C   0  0  0  0  0  0  0  0  0  0  0  0
    3.9112    0.2722    0.1770 C   0  0  2  0  0  0  0  0  0  0  0  0
   -0.6542   -2.1011   -0.4050 C   0  0  0  0  0  0  0  0  0  0  0  0
   -4.2627    0.6226   -0.9563 C   0  0  0  0  0  0  0  0  0  0  0  0
    3.2690   -1.0414    0.6589 C   0  0  0  0  0  0  0  0  0  0  0  0
   -1.6933    2.0164    0.5475 C   0  0  0  0  0  0  0  0  0  0  0  0
    0.6990    2.5607   -0.0881 C   0  0  0  0  0  0  0  0  0  0  0  0
   -0.5458    2.6912    0.7598 C   0  0  0  0  0  0  0  0  0  0  0  0
    2.4801   -1.7910   -0.4232 C   0  0  0  0  0  0  0  0  0  0  0  0
    1.7240    1.6354    0.5677 C   0  0  0  0  0  0  0  0  0  0  0  0
    0.3428   -3.0602    0.2115 C   0  0  0  0  0  0  0  0  0  0  0  0
    2.8773    1.2743   -0.3593 C   0  0  0  0  0  0  0  0  0  0  0  0
    1.6826   -2.9145    0.1796 C   0  0  0  0  0  0  0  0  0  0  0  0
   -4.5257   -1.7271    0.0818 C   0  0  0  0  0  0  0  0  0  0  0  0
    5.0135    0.0139   -0.8512 C   0  0  0  0  0  0  0  0  0  0  0  0
   -0.4399    3.6635    1.9062 C   0  0  0  0  0  0  0  0  0  0  0  0
   -0.2618   -4.2765    0.8670 C   0  0  0  0  0  0  0  0  0  0  0  0
   -1.1877    0.9134   -1.2666 H   0  0  0  0  0  0  0  0  0  0  0  0
   -0.6858   -0.6777    1.2374 H   0  0  0  0  0  0  0  0  0  0  0  0
   -1.9156   -1.9089    1.3517 H   0  0  0  0  0  0  0  0  0  0  0  0
    4.3811    0.7568    1.0429 H   0  0  0  0  0  0  0  0  0  0  0  0
   -0.1743   -1.4408   -1.1340 H   0  0  0  0  0  0  0  0  0  0  0  0
   -1.3769   -2.6854   -0.9910 H   0  0  0  0  0  0  0  0  0  0  0  0
   -4.7395    0.3369   -1.8982 H   0  0  0  0  0  0  0  0  0  0  0  0
   -4.9787    1.1676   -0.3335 H   0  0  0  0  0  0  0  0  0  0  0  0
    2.6144   -0.8307    1.5139 H   0  0  0  0  0  0  0  0  0  0  0  0
    4.0558   -1.7006    1.0501 H   0  0  0  0  0  0  0  0  0  0  0  0
   -2.5218    2.2064    1.2307 H   0  0  0  0  0  0  0  0  0  0  0  0
    0.4541    2.2000   -1.0923 H   0  0  0  0  0  0  0  0  0  0  0  0
    1.1409    3.5528   -0.2479 H   0  0  0  0  0  0  0  0  0  0  0  0
    3.1731   -2.2204   -1.1561 H   0  0  0  0  0  0  0  0  0  0  0  0
    1.8430   -1.0964   -0.9735 H   0  0  0  0  0  0  0  0  0  0  0  0
    2.1475    2.1040    1.4627 H   0  0  0  0  0  0  0  0  0  0  0  0
    1.2220    0.7112    0.8646 H   0  0  0  0  0  0  0  0  0  0  0  0
    2.2916   -3.6894    0.6444 H   0  0  0  0  0  0  0  0  0  0  0  0
   -4.9686   -2.1378   -0.8312 H   0  0  0  0  0  0  0  0  0  0  0  0
   -3.9557   -2.5281    0.5604 H   0  0  0  0  0  0  0  0  0  0  0  0
   -5.3360   -1.4405    0.7595 H   0  0  0  0  0  0  0  0  0  0  0  0
    4.6113   -0.3900   -1.7862 H   0  0  0  0  0  0  0  0  0  0  0  0
    5.7544   -0.6920   -0.4620 H   0  0  0  0  0  0  0  0  0  0  0  0
    5.5370    0.9445   -1.0976 H   0  0  0  0  0  0  0  0  0  0  0  0
    0.3446    3.3517    2.6028 H   0  0  0  0  0  0  0  0  0  0  0  0
   -1.3728    3.7414    2.4745 H   0  0  0  0  0  0  0  0  0  0  0  0
   -0.1973    4.6639    1.5332 H   0  0  0  0  0  0  0  0  0  0  0  0
   -0.8766   -3.9876    1.7248 H   0  0  0  0  0  0  0  0  0  0  0  0
    0.4990   -4.9761    1.2297 H   0  0  0  0  0  0  0  0  0  0  0  0
   -0.8912   -4.8188    0.1537 H   0  0  0  0  0  0  0  0  0  0  0  0
  1  4  1  0  0  0  0
  1  9  1  0  0  0  0
  2 17  2  0  0  0  0
  3  4  1  0  0  0  0
  3  5  1  0  0  0  0
  3  6  2  0  0  0  0
  4 11  1  0  0  0  0
  4 23  1  0  0  0  0
  5  8  1  0  0  0  0
  5 24  1  0  0  0  0
  5 25  1  0  0  0  0
  6  9  1  0  0  0  0
  6 19  1  0  0  0  0
  7 10  1  0  0  0  0
  7 17  1  0  0  0  0
  7 20  1  0  0  0  0
  7 26  1  0  0  0  0
  8 16  1  0  0  0  0
  8 27  1  0  0  0  0
  8 28  1  0  0  0  0
  9 29  1  0  0  0  0
  9 30  1  0  0  0  0
 10 14  1  0  0  0  0
 10 31  1  0  0  0  0
 10 32  1  0  0  0  0
 11 13  2  0  0  0  0
 11 33  1  0  0  0  0
 12 13  1  0  0  0  0
 12 15  1  0  0  0  0
 12 34  1  0  0  0  0
 12 35  1  0  0  0  0
 13 21  1  0  0  0  0
 14 18  1  0  0  0  0
 14 36  1  0  0  0  0
 14 37  1  0  0  0  0
 15 17  1  0  0  0  0
 15 38  1  0  0  0  0
 15 39  1  0  0  0  0
 16 18  2  0  0  0  0
 16 22  1  0  0  0  0
 18 40  1  0  0  0  0
 19 41  1  0  0  0  0
 19 42  1  0  0  0  0
 19 43  1  0  0  0  0
 20 44  1  0  0  0  0
 20 45  1  0  0  0  0
 20 46  1  0  0  0  0
 21 47  1  0  0  0  0
 21 48  1  0  0  0  0
 21 49  1  0  0  0  0
 22 50  1  0  0  0  0
 22 51  1  0  0  0  0
 22 52  1  0  0  0  0
M  END
> <PUBCHEM_COMPOUND_CID>
102213769

> <PUBCHEM_CONFORMER_RMSD>
0.6

> <PUBCHEM_CONFORMER_DIVERSEORDER>
3
39
9
12
24
28
13
16
37
32
15
25
36
29
17
38
34
30
11
33
2
21
8
27
31
26
7
4
19
23
5
20
18
22
10
6
1
35
14

> <PUBCHEM_MMFF94_PARTIAL_CHARGES>
22
1 -0.56
11 -0.29
12 0.14
13 -0.28
14 0.14
15 0.06
16 -0.28
17 0.45
18 -0.29
19 0.14
2 -0.57
21 0.14
22 0.14
3 -0.28
33 0.15
4 0.56
40 0.15
5 0.14
6 -0.28
7 0.06
8 0.14
9 0.42

> <PUBCHEM_EFFECTIVE_ROTOR_COUNT>
1.8

> <PUBCHEM_PHARMACOPHORE_FEATURES>
3
1 1 acceptor
1 2 acceptor
5 1 3 4 6 9 rings

> <PUBCHEM_HEAVY_ATOM_COUNT>
22

> <PUBCHEM_ATOM_DEF_STEREO_COUNT>
0

> <PUBCHEM_ATOM_UDEF_STEREO_COUNT>
2

> <PUBCHEM_BOND_DEF_STEREO_COUNT>
2

> <PUBCHEM_BOND_UDEF_STEREO_COUNT>
0

> <PUBCHEM_ISOTOPIC_ATOM_COUNT>
0

> <PUBCHEM_COMPONENT_COUNT>
1

> <PUBCHEM_CACTVS_TAUTO_COUNT>
3

> <PUBCHEM_CONFORMER_ID>
0617A88900000003

> <PUBCHEM_MMFF94_ENERGY>
28.4016

> <PUBCHEM_FEATURE_SELFOVERLAP>
15.223

> <PUBCHEM_SHAPE_FINGERPRINT>
10498660 4 18410855421658403822
10616163 171 18341052904488887756
10708813 3 17692535511804245576
10759866 29 17967537904496928246
108634 29 18340216279726014742
1100329 8 18267020737986281578
11370993 70 18333444352786190532
11578080 2 17024570219773147847
11646440 116 18271813466206124010
12539773 59 17125339248602735145
12553582 1 18342466945193645048
12788726 201 18272094885701999184
12838862 33 18266719403170594844
13122387 1 18194402195370557922
13140716 1 18340202986300657961
13402501 40 18338517563660973443
14114211 80 17980230747625744007
14117953 113 15745844500964445965
14178342 30 17981315704237238256
14251757 17 17463671114268750245
14251757 5 18192448561361889606
14765038 42 18056502744111171576
14787075 74 18335983172685892095
14931854 50 18411138009094662652
19591789 44 18193555808067802011
19930381 70 18410571777812996491
20715895 44 17827621570633481045
20775438 99 17120821784837485999
20832881 197 18201162165184441449
20905425 154 18128537067941845236
21141583 151 18270969062914358264
22113638 7 18338790221407149878
23227448 37 18340483482162767751
23558518 356 18124613989116351248
23559900 14 18049144589044372603
238 59 18048560928831789047
2748010 2 17185308189081991683
3298306 158 18337378414317891743
3524813 1 18261106408836764118
463206 1 18270390715519200319
484989 97 18118403088645197575
57527585 103 17607839134531637867

> <PUBCHEM_SHAPE_MULTIPOLES>
441.01
7.76
4.84
1.15
0.76
1.59
-0.1
0.36
2.64
-0.02
-2.04
-0.01
-0.71
-0.17

> <PUBCHEM_SHAPE_SELFOVERLAP>
887.645

> <PUBCHEM_SHAPE_VOLUME>
259.7

> <PUBCHEM_COORDINATE_TYPE>
2
5
10

$$$$
