12304371
  -OEChem-02172602333D

 49 54  0     1  0  0  0  0  0999 V2000
    0.1328    1.1695    0.5117 O   0  0  0  0  0  0  0  0  0  0  0  0
    1.9422    2.5575    0.9107 O   0  0  0  0  0  0  0  0  0  0  0  0
    4.4376    1.5315    0.3800 O   0  0  0  0  0  0  0  0  0  0  0  0
    5.7095    0.0702   -1.0434 O   0  0  0  0  0  0  0  0  0  0  0  0
   -4.5154    2.2286   -1.0716 O   0  0  0  0  0  0  0  0  0  0  0  0
   -5.9507    0.3363   -0.6721 O   0  0  0  0  0  0  0  0  0  0  0  0
    0.1396   -2.5611    0.3374 N   0  0  2  0  0  0  0  0  0  0  0  0
    0.2673   -1.1803   -0.1803 C   0  0  1  0  0  0  0  0  0  0  0  0
   -0.4717   -0.1179    0.6866 C   0  0  2  0  0  0  0  0  0  0  0  0
    1.7323   -0.8309   -0.4588 C   0  0  0  0  0  0  0  0  0  0  0  0
   -1.9541   -0.0361    0.3267 C   0  0  0  0  0  0  0  0  0  0  0  0
   -1.2170   -3.1099    0.2562 C   0  0  0  0  0  0  0  0  0  0  0  0
    2.3198    0.3143    0.1145 C   0  0  0  0  0  0  0  0  0  0  0  0
   -2.2808   -2.4422    1.1352 C   0  0  0  0  0  0  0  0  0  0  0  0
   -2.8071   -1.1526    0.5513 C   0  0  0  0  0  0  0  0  0  0  0  0
    1.4796    1.2125    0.9781 C   0  0  2  0  0  0  0  0  0  0  0  0
    2.4987   -1.6679   -1.3087 C   0  0  0  0  0  0  0  0  0  0  0  0
    0.7665   -2.8035    1.6360 C   0  0  0  0  0  0  0  0  0  0  0  0
    3.6722    0.5218   -0.1251 C   0  0  0  0  0  0  0  0  0  0  0  0
   -2.4988    1.1393   -0.2306 C   0  0  0  0  0  0  0  0  0  0  0  0
   -4.1771   -1.0738    0.2327 C   0  0  0  0  0  0  0  0  0  0  0  0
    4.4083   -0.3147   -0.9354 C   0  0  0  0  0  0  0  0  0  0  0  0
   -3.8452    1.1732   -0.5332 C   0  0  0  0  0  0  0  0  0  0  0  0
    3.8478   -1.4110   -1.5515 C   0  0  0  0  0  0  0  0  0  0  0  0
   -4.6624    0.0970   -0.3064 C   0  0  0  0  0  0  0  0  0  0  0  0
    5.7202    1.2414   -0.2067 C   0  0  0  0  0  0  0  0  0  0  0  0
   -5.8509    1.6911   -1.1562 C   0  0  0  0  0  0  0  0  0  0  0  0
    1.1565    3.4178    1.7229 C   0  0  0  0  0  0  0  0  0  0  0  0
   -0.1860   -1.1576   -1.1837 H   0  0  0  0  0  0  0  0  0  0  0  0
   -0.4123   -0.3367    1.7592 H   0  0  0  0  0  0  0  0  0  0  0  0
   -1.1667   -4.1719    0.5313 H   0  0  0  0  0  0  0  0  0  0  0  0
   -1.5424   -3.1086   -0.7926 H   0  0  0  0  0  0  0  0  0  0  0  0
   -1.9281   -2.2638    2.1569 H   0  0  0  0  0  0  0  0  0  0  0  0
   -3.1104   -3.1537    1.2416 H   0  0  0  0  0  0  0  0  0  0  0  0
    1.5374    0.8665    2.0189 H   0  0  0  0  0  0  0  0  0  0  0  0
    2.0393   -2.5364   -1.7757 H   0  0  0  0  0  0  0  0  0  0  0  0
    1.8281   -2.5365    1.6253 H   0  0  0  0  0  0  0  0  0  0  0  0
    0.7324   -3.8720    1.8789 H   0  0  0  0  0  0  0  0  0  0  0  0
    0.2935   -2.2617    2.4594 H   0  0  0  0  0  0  0  0  0  0  0  0
   -1.8909    2.0158   -0.4295 H   0  0  0  0  0  0  0  0  0  0  0  0
   -4.8428   -1.9147    0.4007 H   0  0  0  0  0  0  0  0  0  0  0  0
    4.4308   -2.0613   -2.1936 H   0  0  0  0  0  0  0  0  0  0  0  0
    6.4490    1.0923    0.5982 H   0  0  0  0  0  0  0  0  0  0  0  0
    6.0335    2.1016   -0.8093 H   0  0  0  0  0  0  0  0  0  0  0  0
   -6.1732    1.7145   -2.2035 H   0  0  0  0  0  0  0  0  0  0  0  0
   -6.5228    2.3252   -0.5666 H   0  0  0  0  0  0  0  0  0  0  0  0
    1.1273    3.0605    2.7570 H   0  0  0  0  0  0  0  0  0  0  0  0
    0.1417    3.5161    1.3261 H   0  0  0  0  0  0  0  0  0  0  0  0
    1.6198    4.4085    1.7146 H   0  0  0  0  0  0  0  0  0  0  0  0
  1  9  1  0  0  0  0
  1 16  1  0  0  0  0
  2 16  1  0  0  0  0
  2 28  1  0  0  0  0
  3 19  1  0  0  0  0
  3 26  1  0  0  0  0
  4 22  1  0  0  0  0
  4 26  1  0  0  0  0
  5 23  1  0  0  0  0
  5 27  1  0  0  0  0
  6 25  1  0  0  0  0
  6 27  1  0  0  0  0
  7  8  1  0  0  0  0
  7 12  1  0  0  0  0
  7 18  1  0  0  0  0
  8  9  1  0  0  0  0
  8 10  1  0  0  0  0
  8 29  1  0  0  0  0
  9 11  1  0  0  0  0
  9 30  1  0  0  0  0
 10 13  2  0  0  0  0
 10 17  1  0  0  0  0
 11 15  1  0  0  0  0
 11 20  2  0  0  0  0
 12 14  1  0  0  0  0
 12 31  1  0  0  0  0
 12 32  1  0  0  0  0
 13 16  1  0  0  0  0
 13 19  1  0  0  0  0
 14 15  1  0  0  0  0
 14 33  1  0  0  0  0
 14 34  1  0  0  0  0
 15 21  2  0  0  0  0
 16 35  1  0  0  0  0
 17 24  2  0  0  0  0
 17 36  1  0  0  0  0
 18 37  1  0  0  0  0
 18 38  1  0  0  0  0
 18 39  1  0  0  0  0
 19 22  2  0  0  0  0
 20 23  1  0  0  0  0
 20 40  1  0  0  0  0
 21 25  1  0  0  0  0
 21 41  1  0  0  0  0
 22 24  1  0  0  0  0
 23 25  2  0  0  0  0
 24 42  1  0  0  0  0
 26 43  1  0  0  0  0
 26 44  1  0  0  0  0
 27 45  1  0  0  0  0
 27 46  1  0  0  0  0
 28 47  1  0  0  0  0
 28 48  1  0  0  0  0
 28 49  1  0  0  0  0
M  END
> <PUBCHEM_COMPOUND_CID>
12304371

> <PUBCHEM_CONFORMER_RMSD>
0.8

> <PUBCHEM_CONFORMER_DIVERSEORDER>
1
2
3

> <PUBCHEM_MMFF94_PARTIAL_CHARGES>
32
1 -0.56
10 -0.14
11 -0.14
12 0.27
13 -0.14
14 0.14
15 -0.14
16 0.7
17 -0.15
18 0.27
19 0.08
2 -0.56
20 -0.15
21 -0.15
22 0.08
23 0.08
24 -0.15
25 0.08
26 0.56
27 0.56
28 0.28
3 -0.36
36 0.15
4 -0.36
40 0.15
41 0.15
42 0.15
5 -0.36
6 -0.36
7 -0.81
8 0.41
9 0.42

> <PUBCHEM_EFFECTIVE_ROTOR_COUNT>
3.2

> <PUBCHEM_PHARMACOPHORE_FEATURES>
13
1 1 acceptor
1 2 acceptor
1 3 acceptor
1 4 acceptor
1 5 acceptor
1 6 acceptor
1 7 cation
5 3 4 19 22 26 rings
5 5 6 23 25 27 rings
6 1 8 9 10 13 16 rings
6 10 13 17 19 22 24 rings
6 11 15 20 21 23 25 rings
7 7 8 9 11 12 14 15 rings

> <PUBCHEM_HEAVY_ATOM_COUNT>
28

> <PUBCHEM_ATOM_DEF_STEREO_COUNT>
3

> <PUBCHEM_ATOM_UDEF_STEREO_COUNT>
0

> <PUBCHEM_BOND_DEF_STEREO_COUNT>
0

> <PUBCHEM_BOND_UDEF_STEREO_COUNT>
0

> <PUBCHEM_ISOTOPIC_ATOM_COUNT>
0

> <PUBCHEM_COMPONENT_COUNT>
1

> <PUBCHEM_CACTVS_TAUTO_COUNT>
1

> <PUBCHEM_CONFORMER_ID>
00BBBFF300000001

> <PUBCHEM_MMFF94_ENERGY>
92.5377

> <PUBCHEM_FEATURE_SELFOVERLAP>
66.374

> <PUBCHEM_SHAPE_FINGERPRINT>
10165383 225 18187646873518527693
10498660 4 18261393308758050605
105312 117 17967809436466366335
10675989 125 17686897216319987125
10693767 8 17916856911925371679
10906281 52 18128840653932870328
11115154 58 16916785137899698041
11961588 58 18260543420645550183
12011746 2 18343869926620579308
12236239 1 16153708747314561950
12293681 160 18340489967351595795
12403259 415 18410856607311886449
12596602 18 14923952249631609173
12730499 353 18334860464271416715
12769317 202 18338787936368744045
12788726 201 18200030625458135816
13402501 40 18411418427356748789
13911987 19 17988095490491940732
13944108 23 17761768465140677885
140371 6 18200326506198463560
14251757 17 18342182175923861626
14681490 219 18130505232690682673
14790565 3 17763754183087648241
14931854 50 18341892927389018501
17349148 13 14907903794659677005
1813 80 13254791326373632603
18608769 82 18261681462994780947
200 152 16988850466350298851
20715895 44 18260549991829507828
21033648 29 18337103570275190737
21279426 13 18410299077644479638
21792961 116 18339096934123674182
221357 26 18201153270117488109
22182313 1 18337692870053621195
22289505 5 18343581820082761148
22393880 68 18411973672645191343
23559900 14 18201434839156010336
23569914 152 16907507247434133421
3004659 81 18261394395859822258
3298306 158 18410852153098698711
350125 39 18266188407842167971
3759504 43 17894354414124964898
4371632 12 15766377335357753008
495365 180 17559945688110377624
508706 21 18336260266616248871
5104073 3 17823422600483362315
513532 50 17988062427485646850
5265222 85 17971208138835414870
5283173 99 18408889516416584460
59755656 215 18411981360056168605
7226269 152 18411141338205980496
7399639 24 17191502820222998482
7808743 9 18040435507832426069
9709674 26 18198059373071514619
9981440 41 17894918425399675427

> <PUBCHEM_SHAPE_MULTIPOLES>
536.03
11.82
3.26
1.32
2.6
0.2
0.1
-5.46
-5.55
0.35
1.36
-0.37
-0.04
2.24

> <PUBCHEM_SHAPE_SELFOVERLAP>
1207.895

> <PUBCHEM_SHAPE_VOLUME>
279.6

> <PUBCHEM_COORDINATE_TYPE>
2
5
10

$$$$
