101673911
  -OEChem-02172602493D

 29 30  0     0  0  0  0  0  0999 V2000
   -1.9659    2.5558    0.0338 S   0  0  0  0  0  0  0  0  0  0  0  0
   -3.9014   -1.5963   -1.2025 O   0  0  0  0  0  0  0  0  0  0  0  0
   -3.7953   -1.6683    1.1263 O   0  0  0  0  0  0  0  0  0  0  0  0
   -1.1028    0.0967   -0.0438 N   0  0  0  0  0  0  0  0  0  0  0  0
   -3.5321    0.4099    0.0734 N   0  0  0  0  0  0  0  0  0  0  0  0
   -3.7444   -0.9789    0.0609 N   0  3  0  0  0  0  0  0  0  0  0  0
    0.0229    0.9333   -0.0243 C   0  0  0  0  0  0  0  0  0  0  0  0
    1.3963    0.4237   -0.0119 C   0  0  0  0  0  0  0  0  0  0  0  0
   -2.3056    0.7990    0.0206 C   0  0  0  0  0  0  0  0  0  0  0  0
    2.0259    0.1455    1.2012 C   0  0  0  0  0  0  0  0  0  0  0  0
    2.0737    0.2154   -1.2133 C   0  0  0  0  0  0  0  0  0  0  0  0
   -0.2490    2.2503    0.0092 C   0  0  0  0  0  0  0  0  0  0  0  0
    4.0107   -0.5490    0.0117 C   0  0  0  0  0  0  0  0  0  0  0  0
   -1.0558   -1.3572   -0.0766 C   0  0  0  0  0  0  0  0  0  0  0  0
    3.3331   -0.3408    1.2130 C   0  0  0  0  0  0  0  0  0  0  0  0
    3.3810   -0.2708   -1.2015 C   0  0  0  0  0  0  0  0  0  0  0  0
    5.4087   -1.0682    0.0239 C   0  0  0  0  0  0  0  0  0  0  0  0
    0.4777    3.0507    0.0354 H   0  0  0  0  0  0  0  0  0  0  0  0
    1.5103    0.3010    2.1458 H   0  0  0  0  0  0  0  0  0  0  0  0
    1.5956    0.4259   -2.1670 H   0  0  0  0  0  0  0  0  0  0  0  0
   -1.4242   -1.7931    0.8541 H   0  0  0  0  0  0  0  0  0  0  0  0
   -0.0278   -1.7253   -0.1680 H   0  0  0  0  0  0  0  0  0  0  0  0
   -1.5620   -1.7609   -0.9546 H   0  0  0  0  0  0  0  0  0  0  0  0
    3.8123   -0.5558    2.1645 H   0  0  0  0  0  0  0  0  0  0  0  0
    3.8978   -0.4308   -2.1441 H   0  0  0  0  0  0  0  0  0  0  0  0
    5.4035   -2.1620   -0.0144 H   0  0  0  0  0  0  0  0  0  0  0  0
    5.9782   -0.6895   -0.8317 H   0  0  0  0  0  0  0  0  0  0  0  0
    5.9403   -0.7513    0.9277 H   0  0  0  0  0  0  0  0  0  0  0  0
   -4.0346   -2.5258   -0.9514 H   0  0  0  0  0  0  0  0  0  0  0  0
  1  9  1  0  0  0  0
  1 12  1  0  0  0  0
  2  6  1  0  0  0  0
  2 29  1  0  0  0  0
  3  6  2  0  0  0  0
  4  7  1  0  0  0  0
  4  9  1  0  0  0  0
  4 14  1  0  0  0  0
  5  6  1  0  0  0  0
  5  9  2  0  0  0  0
  7  8  1  0  0  0  0
  7 12  2  0  0  0  0
  8 10  2  0  0  0  0
  8 11  1  0  0  0  0
 10 15  1  0  0  0  0
 10 19  1  0  0  0  0
 11 16  2  0  0  0  0
 11 20  1  0  0  0  0
 12 18  1  0  0  0  0
 13 15  2  0  0  0  0
 13 16  1  0  0  0  0
 13 17  1  0  0  0  0
 14 21  1  0  0  0  0
 14 22  1  0  0  0  0
 14 23  1  0  0  0  0
 15 24  1  0  0  0  0
 16 25  1  0  0  0  0
 17 26  1  0  0  0  0
 17 27  1  0  0  0  0
 17 28  1  0  0  0  0
M  CHG  1   6   1
M  END
> <PUBCHEM_COMPOUND_CID>
101673911

> <PUBCHEM_CONFORMER_RMSD>
0.6

> <PUBCHEM_CONFORMER_DIVERSEORDER>
1

> <PUBCHEM_MMFF94_PARTIAL_CHARGES>
23
1 -0.24
10 -0.15
11 -0.15
12 -0.05
13 -0.14
14 0.37
15 -0.15
16 -0.15
17 0.14
18 0.15
19 0.15
2 -0.54
20 0.15
24 0.15
25 0.15
29 0.4
3 -0.63
4 -0.52
5 -0.66
6 0.98
7 0.07
8 0.03
9 0.64

> <PUBCHEM_EFFECTIVE_ROTOR_COUNT>
2

> <PUBCHEM_PHARMACOPHORE_FEATURES>
5
1 2 acceptor
1 3 acceptor
3 4 5 9 cation
5 1 4 7 9 12 rings
6 8 10 11 13 15 16 rings

> <PUBCHEM_HEAVY_ATOM_COUNT>
17

> <PUBCHEM_ATOM_DEF_STEREO_COUNT>
0

> <PUBCHEM_ATOM_UDEF_STEREO_COUNT>
0

> <PUBCHEM_BOND_DEF_STEREO_COUNT>
1

> <PUBCHEM_BOND_UDEF_STEREO_COUNT>
0

> <PUBCHEM_ISOTOPIC_ATOM_COUNT>
0

> <PUBCHEM_COMPONENT_COUNT>
1

> <PUBCHEM_CACTVS_TAUTO_COUNT>
2

> <PUBCHEM_CONFORMER_ID>
060F6BB700000001

> <PUBCHEM_MMFF94_ENERGY>
63.4663

> <PUBCHEM_FEATURE_SELFOVERLAP>
25.416

> <PUBCHEM_SHAPE_FINGERPRINT>
10618630 7 18412543231956987284
11046707 91 18409729555931633129
11543360 7 15647054923275701819
12032990 46 18411140263920798265
12236239 1 17677056746043394756
12363563 72 18339364175146028063
12553582 1 18337393841650767947
12633257 1 16988846107006200170
12892183 10 14764360335508424087
13288520 33 18339081493520799622
13296908 3 18272645757632228040
13581323 91 18411133606995854468
13675066 3 13326858829143334894
14115302 16 17749113330589843874
14252887 29 16630530596900874342
14386348 63 17846779572651330540
14576447 43 17530684312393792002
15653759 3 18059572451890023832
15848700 24 18270954747640531431
16752209 62 18261660511547822035
17804303 29 18343302569603509281
17834072 33 18187370917943843108
18186145 218 16660644080779814765
18785283 64 17488162976770343960
18915474 69 18040441009580179898
19049666 15 17487343629594862356
19141452 34 17846780728535778975
19422 9 18040723532665982880
19862831 5 17312823779535485978
200 152 16732986397101062924
20510252 161 18272088258145468448
21713013 43 16878224289807675339
22646028 28 18260829280672833842
23402539 116 18409443661707940308
23402655 69 15140951834002495566
23557571 272 18200031729386127484
23559900 14 18056480539804938510
23598291 2 17822306647451998580
26918003 58 16845572002291335435
2748010 2 18339067311449734581
312423 11 18261407658191337828
3286 77 16845003628068422083
465052 167 18191320458063510043
474 4 17242187936338862916
5104073 3 18341891849557657136
57096353 35 17822023003463854300
573450 72 18189330178654958256
7364860 26 18054510476096513456
7495541 125 18131628989877674048
76465 3 18270956946674622391
77492 1 17676776362025391468
7970288 3 18337674234285969619
9709674 26 18339088086143144454

> <PUBCHEM_SHAPE_MULTIPOLES>
327.02
8.83
2
1.09
3.79
0.73
-0.01
-4.66
0.03
-2.58
0.01
0.49
-0.21
-0.07

> <PUBCHEM_SHAPE_SELFOVERLAP>
677.428

> <PUBCHEM_SHAPE_VOLUME>
190.6

> <PUBCHEM_COORDINATE_TYPE>
2
5
10

$$$$
