5320839
  -OEChem-02172602473D

 72 76  0     1  0  0  0  0  0999 V2000
    3.5755   -1.9940   -0.4739 O   0  0  0  0  0  0  0  0  0  0  0  0
   -4.8708   -0.6477    0.3334 O   0  0  0  0  0  0  0  0  0  0  0  0
    3.2233    0.0879   -1.4677 O   0  0  0  0  0  0  0  0  0  0  0  0
   -4.5320    0.3264   -1.7593 O   0  0  0  0  0  0  0  0  0  0  0  0
    7.0606   -0.6786    1.2569 O   0  0  0  0  0  0  0  0  0  0  0  0
    5.1111    1.2317    0.3282 O   0  0  0  0  0  0  0  0  0  0  0  0
    5.6980   -3.0811    2.2976 O   0  0  0  0  0  0  0  0  0  0  0  0
   -8.6896    0.8478    0.5614 O   0  0  0  0  0  0  0  0  0  0  0  0
   -6.7409    2.0287   -1.3044 O   0  0  0  0  0  0  0  0  0  0  0  0
   -7.3321   -0.0457    2.9711 O   0  0  0  0  0  0  0  0  0  0  0  0
   -0.0596    1.6570   -0.8773 O   0  0  0  0  0  0  0  0  0  0  0  0
    4.0519   -4.9769    1.3143 O   0  0  0  0  0  0  0  0  0  0  0  0
   -5.3925   -1.8097    3.6051 O   0  0  0  0  0  0  0  0  0  0  0  0
    3.4380   -4.5175   -0.8323 O   0  0  0  0  0  0  0  0  0  0  0  0
   -4.4668   -2.7393    1.7411 O   0  0  0  0  0  0  0  0  0  0  0  0
    1.4299   -1.7748   -2.4922 O   0  0  0  0  0  0  0  0  0  0  0  0
   -0.9985   -2.5860   -3.0228 O   0  0  0  0  0  0  0  0  0  0  0  0
    3.4779    3.5048    2.8833 O   0  0  0  0  0  0  0  0  0  0  0  0
    4.3627    5.5909    1.2749 O   0  0  0  0  0  0  0  0  0  0  0  0
    5.6558   -0.9328    1.2006 C   0  0  1  0  0  0  0  0  0  0  0  0
    5.0815   -0.1605    0.0142 C   0  0  1  0  0  0  0  0  0  0  0  0
    5.4161   -2.4370    1.0564 C   0  0  2  0  0  0  0  0  0  0  0  0
   -7.2735    0.8729    0.7457 C   0  0  2  0  0  0  0  0  0  0  0  0
   -6.5801    0.7895   -0.6145 C   0  0  2  0  0  0  0  0  0  0  0  0
   -6.8919   -0.3075    1.6396 C   0  0  1  0  0  0  0  0  0  0  0  0
    3.6430   -0.5836   -0.2810 C   0  0  2  0  0  0  0  0  0  0  0  0
    3.9636   -2.7182    0.6879 C   0  0  2  0  0  0  0  0  0  0  0  0
   -5.0835    0.5191   -0.4572 C   0  0  1  0  0  0  0  0  0  0  0  0
   -5.3816   -0.5078    1.6541 C   0  0  1  0  0  0  0  0  0  0  0  0
    3.7828   -4.1444    0.2790 C   0  0  0  0  0  0  0  0  0  0  0  0
   -5.0200   -1.8051    2.3019 C   0  0  0  0  0  0  0  0  0  0  0  0
    1.8629    0.3078   -1.4515 C   0  0  0  0  0  0  0  0  0  0  0  0
   -3.1957    0.0621   -1.8234 C   0  0  0  0  0  0  0  0  0  0  0  0
   -0.4663   -0.4795   -1.9552 C   0  0  0  0  0  0  0  0  0  0  0  0
    0.9796   -0.7435   -2.0113 C   0  0  0  0  0  0  0  0  0  0  0  0
   -0.9119    0.7125   -1.3881 C   0  0  0  0  0  0  0  0  0  0  0  0
    1.3044    1.4195   -0.9390 C   0  0  0  0  0  0  0  0  0  0  0  0
   -2.2784    0.9852   -1.3210 C   0  0  0  0  0  0  0  0  0  0  0  0
   -2.7481   -1.1314   -2.3915 C   0  0  0  0  0  0  0  0  0  0  0  0
   -1.3818   -1.4066   -2.4594 C   0  0  0  0  0  0  0  0  0  0  0  0
    2.1048    2.5110   -0.3560 C   0  0  0  0  0  0  0  0  0  0  0  0
    2.4198    2.4964    1.0031 C   0  0  0  0  0  0  0  0  0  0  0  0
    2.5481    3.5593   -1.1627 C   0  0  0  0  0  0  0  0  0  0  0  0
    3.1778    3.5292    1.5550 C   0  0  0  0  0  0  0  0  0  0  0  0
    3.3057    4.5923   -0.6108 C   0  0  0  0  0  0  0  0  0  0  0  0
    3.6207    4.5772    0.7480 C   0  0  0  0  0  0  0  0  0  0  0  0
    5.2386   -0.5765    2.1507 H   0  0  0  0  0  0  0  0  0  0  0  0
    5.7108   -0.2981   -0.8732 H   0  0  0  0  0  0  0  0  0  0  0  0
    6.1063   -2.8454    0.3071 H   0  0  0  0  0  0  0  0  0  0  0  0
   -7.0442    1.8230    1.2439 H   0  0  0  0  0  0  0  0  0  0  0  0
   -7.0503    0.0171   -1.2347 H   0  0  0  0  0  0  0  0  0  0  0  0
   -7.4079   -1.2139    1.2999 H   0  0  0  0  0  0  0  0  0  0  0  0
    3.0037   -0.3112    0.5704 H   0  0  0  0  0  0  0  0  0  0  0  0
    3.2653   -2.5073    1.5074 H   0  0  0  0  0  0  0  0  0  0  0  0
   -4.6020    1.3842    0.0176 H   0  0  0  0  0  0  0  0  0  0  0  0
   -4.8447    0.2949    2.1748 H   0  0  0  0  0  0  0  0  0  0  0  0
    7.1790    0.2832    1.3402 H   0  0  0  0  0  0  0  0  0  0  0  0
    4.7905    1.3403    1.2387 H   0  0  0  0  0  0  0  0  0  0  0  0
    5.6725   -4.0410    2.1476 H   0  0  0  0  0  0  0  0  0  0  0  0
   -8.9181    1.5856   -0.0295 H   0  0  0  0  0  0  0  0  0  0  0  0
   -6.3323    2.7285   -0.7669 H   0  0  0  0  0  0  0  0  0  0  0  0
   -6.8776    0.7537    3.2875 H   0  0  0  0  0  0  0  0  0  0  0  0
   -2.6145    1.9257   -0.8924 H   0  0  0  0  0  0  0  0  0  0  0  0
   -3.4677   -1.8477   -2.7807 H   0  0  0  0  0  0  0  0  0  0  0  0
    3.9386   -5.9191    1.0658 H   0  0  0  0  0  0  0  0  0  0  0  0
   -5.1650   -2.6547    4.0483 H   0  0  0  0  0  0  0  0  0  0  0  0
    2.0729    1.6880    1.6428 H   0  0  0  0  0  0  0  0  0  0  0  0
    2.3105    3.5847   -2.2235 H   0  0  0  0  0  0  0  0  0  0  0  0
   -0.0326   -2.6681   -3.0172 H   0  0  0  0  0  0  0  0  0  0  0  0
    3.6446    5.4023   -1.2510 H   0  0  0  0  0  0  0  0  0  0  0  0
    4.0075    4.2939    3.0919 H   0  0  0  0  0  0  0  0  0  0  0  0
    4.5791    6.2246    0.5695 H   0  0  0  0  0  0  0  0  0  0  0  0
  1 26  1  0  0  0  0
  1 27  1  0  0  0  0
  2 28  1  0  0  0  0
  2 29  1  0  0  0  0
  3 26  1  0  0  0  0
  3 32  1  0  0  0  0
  4 28  1  0  0  0  0
  4 33  1  0  0  0  0
  5 20  1  0  0  0  0
  5 57  1  0  0  0  0
  6 21  1  0  0  0  0
  6 58  1  0  0  0  0
  7 22  1  0  0  0  0
  7 59  1  0  0  0  0
  8 23  1  0  0  0  0
  8 60  1  0  0  0  0
  9 24  1  0  0  0  0
  9 61  1  0  0  0  0
 10 25  1  0  0  0  0
 10 62  1  0  0  0  0
 11 36  1  0  0  0  0
 11 37  1  0  0  0  0
 12 30  1  0  0  0  0
 12 65  1  0  0  0  0
 13 31  1  0  0  0  0
 13 66  1  0  0  0  0
 14 30  2  0  0  0  0
 15 31  2  0  0  0  0
 16 35  2  0  0  0  0
 17 40  1  0  0  0  0
 17 69  1  0  0  0  0
 18 44  1  0  0  0  0
 18 71  1  0  0  0  0
 19 46  1  0  0  0  0
 19 72  1  0  0  0  0
 20 21  1  0  0  0  0
 20 22  1  0  0  0  0
 20 47  1  0  0  0  0
 21 26  1  0  0  0  0
 21 48  1  0  0  0  0
 22 27  1  0  0  0  0
 22 49  1  0  0  0  0
 23 24  1  0  0  0  0
 23 25  1  0  0  0  0
 23 50  1  0  0  0  0
 24 28  1  0  0  0  0
 24 51  1  0  0  0  0
 25 29  1  0  0  0  0
 25 52  1  0  0  0  0
 26 53  1  0  0  0  0
 27 30  1  0  0  0  0
 27 54  1  0  0  0  0
 28 55  1  0  0  0  0
 29 31  1  0  0  0  0
 29 56  1  0  0  0  0
 32 35  1  0  0  0  0
 32 37  2  0  0  0  0
 33 38  1  0  0  0  0
 33 39  2  0  0  0  0
 34 35  1  0  0  0  0
 34 36  1  0  0  0  0
 34 40  2  0  0  0  0
 36 38  2  0  0  0  0
 37 41  1  0  0  0  0
 38 63  1  0  0  0  0
 39 40  1  0  0  0  0
 39 64  1  0  0  0  0
 41 42  2  0  0  0  0
 41 43  1  0  0  0  0
 42 44  1  0  0  0  0
 42 67  1  0  0  0  0
 43 45  2  0  0  0  0
 43 68  1  0  0  0  0
 44 46  2  0  0  0  0
 45 46  1  0  0  0  0
 45 70  1  0  0  0  0
M  END
> <PUBCHEM_COMPOUND_CID>
5320839

> <PUBCHEM_CONFORMER_RMSD>
1.2

> <PUBCHEM_CONFORMER_DIVERSEORDER>
2
34
64
139
148
138
144
96
20
58
87
141
89
151
90
69
107
130
41
120
45
66
63
104
31
51
25
147
6
136
115
56
85
137
99
53
15
33
62
77
23
140
118
143
110
42
91
117
13
113
112
94
39
135
67
106
116
72
28
9
37
19
132
86
49
11
22
57
21
93
128
7
26
10
35
121
134
48
44
40
3
122
149
46
111
97
24
14
68
127
75
18
102
30
114
47
83
59
129
5
126
27
146
100
36
8
123
73
76
142
92
95
105
119
12
32
133
29
16
81
84
54
101
78
38
150
88
109
1
98
74
61
60
17
131
50
70
82
4
52
79
43
65
125
145
55
71
103
80
124
108

> <PUBCHEM_MMFF94_PARTIAL_CHARGES>
62
1 -0.56
10 -0.68
11 -0.16
12 -0.65
13 -0.65
14 -0.57
15 -0.57
16 -0.57
17 -0.53
18 -0.53
19 -0.53
2 -0.56
20 0.28
21 0.28
22 0.28
23 0.28
24 0.28
25 0.28
26 0.56
27 0.34
28 0.56
29 0.34
3 -0.36
30 0.66
31 0.66
32 0.09
33 0.08
34 0.09
35 0.47
36 0.08
37 0.05
38 -0.15
39 -0.15
4 -0.36
40 0.08
41 0.03
42 -0.15
43 -0.15
44 0.08
45 -0.15
46 0.08
5 -0.68
57 0.4
58 0.4
59 0.4
6 -0.68
60 0.4
61 0.4
62 0.4
63 0.15
64 0.15
65 0.5
66 0.5
67 0.15
68 0.15
69 0.45
7 -0.68
70 0.15
71 0.45
72 0.45
8 -0.68
9 -0.68

> <PUBCHEM_EFFECTIVE_ROTOR_COUNT>
9.4

> <PUBCHEM_PHARMACOPHORE_FEATURES>
32
1 1 acceptor
1 10 acceptor
1 10 donor
1 11 acceptor
1 12 acceptor
1 13 acceptor
1 14 acceptor
1 15 acceptor
1 16 acceptor
1 17 donor
1 18 donor
1 19 donor
1 2 acceptor
1 3 acceptor
1 4 acceptor
1 5 acceptor
1 5 donor
1 6 acceptor
1 6 donor
1 7 acceptor
1 7 donor
1 8 acceptor
1 8 donor
1 9 acceptor
1 9 donor
3 12 14 30 anion
3 13 15 31 anion
6 1 20 21 22 26 27 rings
6 11 32 34 35 36 37 rings
6 2 23 24 25 28 29 rings
6 33 34 36 38 39 40 rings
6 41 42 43 44 45 46 rings

> <PUBCHEM_HEAVY_ATOM_COUNT>
46

> <PUBCHEM_ATOM_DEF_STEREO_COUNT>
10

> <PUBCHEM_ATOM_UDEF_STEREO_COUNT>
0

> <PUBCHEM_BOND_DEF_STEREO_COUNT>
0

> <PUBCHEM_BOND_UDEF_STEREO_COUNT>
0

> <PUBCHEM_ISOTOPIC_ATOM_COUNT>
0

> <PUBCHEM_COMPONENT_COUNT>
1

> <PUBCHEM_CACTVS_TAUTO_COUNT>
57

> <PUBCHEM_CONFORMER_ID>
0051308700000002

> <PUBCHEM_MMFF94_ENERGY>
143.7656

> <PUBCHEM_FEATURE_SELFOVERLAP>
162.748

> <PUBCHEM_SHAPE_FINGERPRINT>
10169797 241 18339094751510278029
11399510 152 18189631604044760409
117089 54 17615689531743860926
12061779 8 16772136810974756593
12128747 34 18259990349195790441
12342043 65 17894630305928657333
13540713 5 17843665888791706948
13782708 43 17168148901761374791
14950920 106 18339089280254387491
15776043 110 18341892957115919488
16708801 149 17416711101753568459
20501277 246 18337662036831485714
21599406 157 9799698091127481785
21796203 349 18411423891272866314
21814621 53 18186518787827239857
21987483 16 18194681691391173487
22889206 1 18268713977128834642
249057 25 17632282511284388597
3178227 256 18410572912338418828
394071 54 18131627868511434334
4112364 45 18200045048501686691
4435113 14 17603598451253341475
5104073 3 18200589332336783261
6058803 2 17770476923443690702
6371009 1 17774715373487172445
6636735 143 18187076274650130763
6703917 75 17543910561251068644
86090 222 17530970137650524370

> <PUBCHEM_SHAPE_MULTIPOLES>
835.14
19.49
5.97
3.01
31.94
2.22
-0.65
-2.29
-14.15
-14.41
-2.57
3.16
-1.26
1.58

> <PUBCHEM_SHAPE_SELFOVERLAP>
1835.994

> <PUBCHEM_SHAPE_VOLUME>
440.9

> <PUBCHEM_COORDINATE_TYPE>
2
5
10

$$$$
