609840
  -OEChem-02172602333D

 46 51  0     1  0  0  0  0  0999 V2000
   -0.1020    0.2293   -1.4284 O   0  0  0  0  0  0  0  0  0  0  0  0
   -2.0532   -0.0958   -2.6712 O   0  0  0  0  0  0  0  0  0  0  0  0
   -4.3370    1.4286   -1.2205 O   0  0  0  0  0  0  0  0  0  0  0  0
   -5.6640    1.0796    0.7572 O   0  0  0  0  0  0  0  0  0  0  0  0
    4.7585    2.3008    0.8778 O   0  0  0  0  0  0  0  0  0  0  0  0
    6.0031    0.4118    0.0504 O   0  0  0  0  0  0  0  0  0  0  0  0
   -0.3218   -2.2489    0.0736 N   0  0  1  0  0  0  0  0  0  0  0  0
   -0.3770   -0.8996    0.7064 C   0  0  1  0  0  0  0  0  0  0  0  0
    0.3669    0.2207   -0.0740 C   0  0  1  0  0  0  0  0  0  0  0  0
   -1.8132   -0.3713    0.7732 C   0  0  0  0  0  0  0  0  0  0  0  0
    1.8798    0.1828   -0.0517 C   0  0  0  0  0  0  0  0  0  0  0  0
    1.0400   -2.8078    0.0022 C   0  0  0  0  0  0  0  0  0  0  0  0
   -2.3420    0.3051   -0.3462 C   0  0  0  0  0  0  0  0  0  0  0  0
    1.9190   -2.1483   -1.0580 C   0  0  0  0  0  0  0  0  0  0  0  0
    2.6164   -0.9247   -0.5330 C   0  0  0  0  0  0  0  0  0  0  0  0
   -1.4850    0.5898   -1.5587 C   0  0  1  0  0  0  0  0  0  0  0  0
   -1.1702   -3.2263    0.7765 C   0  0  0  0  0  0  0  0  0  0  0  0
   -2.5967   -0.5460    1.9368 C   0  0  0  0  0  0  0  0  0  0  0  0
   -3.6517    0.7517   -0.2559 C   0  0  0  0  0  0  0  0  0  0  0  0
    2.5710    1.3092    0.4407 C   0  0  0  0  0  0  0  0  0  0  0  0
    4.0244   -0.8964   -0.5239 C   0  0  0  0  0  0  0  0  0  0  0  0
   -4.4115    0.5594    0.8762 C   0  0  0  0  0  0  0  0  0  0  0  0
    3.9501    1.2982    0.4390 C   0  0  0  0  0  0  0  0  0  0  0  0
    4.6583    0.2240   -0.0323 C   0  0  0  0  0  0  0  0  0  0  0  0
   -3.9118   -0.0815    1.9900 C   0  0  0  0  0  0  0  0  0  0  0  0
   -5.6106    1.6242   -0.5756 C   0  0  0  0  0  0  0  0  0  0  0  0
    6.0601    1.7314    0.6295 C   0  0  0  0  0  0  0  0  0  0  0  0
    0.0308   -0.9469    1.7259 H   0  0  0  0  0  0  0  0  0  0  0  0
    0.0896    1.1930    0.3635 H   0  0  0  0  0  0  0  0  0  0  0  0
    0.9642   -3.8603   -0.3041 H   0  0  0  0  0  0  0  0  0  0  0  0
    1.5229   -2.8087    0.9887 H   0  0  0  0  0  0  0  0  0  0  0  0
    1.3519   -1.9046   -1.9644 H   0  0  0  0  0  0  0  0  0  0  0  0
    2.6701   -2.8834   -1.3767 H   0  0  0  0  0  0  0  0  0  0  0  0
   -1.5103    1.6637   -1.7739 H   0  0  0  0  0  0  0  0  0  0  0  0
   -2.2314   -2.9746    0.6909 H   0  0  0  0  0  0  0  0  0  0  0  0
   -0.9044   -3.3131    1.8362 H   0  0  0  0  0  0  0  0  0  0  0  0
   -1.0836   -4.2203    0.3211 H   0  0  0  0  0  0  0  0  0  0  0  0
   -2.1799   -1.0556    2.8022 H   0  0  0  0  0  0  0  0  0  0  0  0
    2.0373    2.1781    0.8140 H   0  0  0  0  0  0  0  0  0  0  0  0
    4.6056   -1.7366   -0.8906 H   0  0  0  0  0  0  0  0  0  0  0  0
   -4.5140   -0.2217    2.8805 H   0  0  0  0  0  0  0  0  0  0  0  0
   -2.4808   -0.9105   -2.3578 H   0  0  0  0  0  0  0  0  0  0  0  0
   -6.3885    1.1463   -1.1821 H   0  0  0  0  0  0  0  0  0  0  0  0
   -5.8162    2.6995   -0.5240 H   0  0  0  0  0  0  0  0  0  0  0  0
    6.6057    1.6753    1.5785 H   0  0  0  0  0  0  0  0  0  0  0  0
    6.6077    2.3912   -0.0532 H   0  0  0  0  0  0  0  0  0  0  0  0
  1  9  1  0  0  0  0
  1 16  1  0  0  0  0
  2 16  1  0  0  0  0
  2 42  1  0  0  0  0
  3 19  1  0  0  0  0
  3 26  1  0  0  0  0
  4 22  1  0  0  0  0
  4 26  1  0  0  0  0
  5 23  1  0  0  0  0
  5 27  1  0  0  0  0
  6 24  1  0  0  0  0
  6 27  1  0  0  0  0
  7  8  1  0  0  0  0
  7 12  1  0  0  0  0
  7 17  1  0  0  0  0
  8  9  1  0  0  0  0
  8 10  1  0  0  0  0
  8 28  1  0  0  0  0
  9 11  1  0  0  0  0
  9 29  1  0  0  0  0
 10 13  2  0  0  0  0
 10 18  1  0  0  0  0
 11 15  1  0  0  0  0
 11 20  2  0  0  0  0
 12 14  1  0  0  0  0
 12 30  1  0  0  0  0
 12 31  1  0  0  0  0
 13 16  1  0  0  0  0
 13 19  1  0  0  0  0
 14 15  1  0  0  0  0
 14 32  1  0  0  0  0
 14 33  1  0  0  0  0
 15 21  2  0  0  0  0
 16 34  1  0  0  0  0
 17 35  1  0  0  0  0
 17 36  1  0  0  0  0
 17 37  1  0  0  0  0
 18 25  2  0  0  0  0
 18 38  1  0  0  0  0
 19 22  2  0  0  0  0
 20 23  1  0  0  0  0
 20 39  1  0  0  0  0
 21 24  1  0  0  0  0
 21 40  1  0  0  0  0
 22 25  1  0  0  0  0
 23 24  2  0  0  0  0
 25 41  1  0  0  0  0
 26 43  1  0  0  0  0
 26 44  1  0  0  0  0
 27 45  1  0  0  0  0
 27 46  1  0  0  0  0
M  END
> <PUBCHEM_COMPOUND_CID>
609840

> <PUBCHEM_CONFORMER_RMSD>
0.6

> <PUBCHEM_CONFORMER_DIVERSEORDER>
1
15
13
17
11
12
9
4
10
3
8
14
7
2
16
5
6

> <PUBCHEM_MMFF94_PARTIAL_CHARGES>
32
1 -0.56
10 -0.14
11 -0.14
12 0.27
13 -0.14
14 0.14
15 -0.14
16 0.7
17 0.27
18 -0.15
19 0.08
2 -0.68
20 -0.15
21 -0.15
22 0.08
23 0.08
24 0.08
25 -0.15
26 0.56
27 0.56
3 -0.36
38 0.15
39 0.15
4 -0.36
40 0.15
41 0.15
42 0.4
5 -0.36
6 -0.36
7 -0.81
8 0.41
9 0.42

> <PUBCHEM_EFFECTIVE_ROTOR_COUNT>
2.2

> <PUBCHEM_PHARMACOPHORE_FEATURES>
14
1 1 acceptor
1 2 acceptor
1 2 donor
1 3 acceptor
1 4 acceptor
1 5 acceptor
1 6 acceptor
1 7 cation
5 3 4 19 22 26 rings
5 5 6 23 24 27 rings
6 1 8 9 10 13 16 rings
6 10 13 18 19 22 25 rings
6 11 15 20 21 23 24 rings
7 7 8 9 11 12 14 15 rings

> <PUBCHEM_HEAVY_ATOM_COUNT>
27

> <PUBCHEM_ATOM_DEF_STEREO_COUNT>
0

> <PUBCHEM_ATOM_UDEF_STEREO_COUNT>
3

> <PUBCHEM_BOND_DEF_STEREO_COUNT>
0

> <PUBCHEM_BOND_UDEF_STEREO_COUNT>
0

> <PUBCHEM_ISOTOPIC_ATOM_COUNT>
0

> <PUBCHEM_COMPONENT_COUNT>
1

> <PUBCHEM_CACTVS_TAUTO_COUNT>
1

> <PUBCHEM_CONFORMER_ID>
00094E3000000001

> <PUBCHEM_MMFF94_ENERGY>
86.007

> <PUBCHEM_FEATURE_SELFOVERLAP>
71.474

> <PUBCHEM_SHAPE_FINGERPRINT>
10 15 18114179787553001672
10319926 262 17385724664827508546
10411042 1 17621606012761119222
11089746 13 16702303469003992712
11112241 14 18411698786116729161
11370993 70 18410862057367123667
12035758 1 17821740429075950385
12236239 1 17131834235512684413
12403259 118 17676776460582604253
12403259 415 18336559256163520682
12422481 6 17676212372383786798
12633257 1 16298110890814035109
12730499 353 18410580547909322523
12788726 201 15410624631578800691
12969540 114 18335691728915371159
13034934 17 18260557727160436395
13140716 1 16878522235983816821
13402501 40 18334574629075381508
13583140 156 18130790092295943875
13631057 29 17844797278347644735
15183329 4 15985116193365203196
15219462 58 17908742495048497915
15324884 4 17825133449119357635
16988056 13 13166777348962599001
17980427 23 17240489155822841335
1813 80 11963669967757072498
19304671 126 16885222428442713557
20511986 3 16988267708224298144
20567600 254 18335415755459398542
20600515 1 16443359654251373429
21033648 29 18260554411134453865
21033650 10 13901924292385210331
21236236 1 18268991049785678695
22122407 14 17987531337831963857
22182313 1 17677330489815423951
22224240 67 18333450946098923475
23557571 272 17023754394349556159
23559900 14 17169562800199454475
2838139 119 17346885541573267240
3004659 81 15195014791292506548
329604 57 10303817592561993082
335352 9 18343023286146653758
350125 39 18053388978620307106
4340502 62 18411991251861950739
4371632 12 16269655663078619864
469060 322 17531520005502982735
474 4 18131633391717810448
495365 180 18263637377741398771
5104073 3 18335144180451410514
56616090 284 11527954456166683196
59755656 520 18411695504424163566
633830 44 17702123399074424595
6608658 132 16773529805890967432

> <PUBCHEM_SHAPE_MULTIPOLES>
515.45
12.27
2.44
1.55
4.22
1.83
0.31
-9.25
-2.19
1.01
-0.23
-1.67
-0.02
1.7

> <PUBCHEM_SHAPE_SELFOVERLAP>
1169.885

> <PUBCHEM_SHAPE_VOLUME>
265.4

> <PUBCHEM_COORDINATE_TYPE>
2
5
10

$$$$
