5491808
  -OEChem-02172602303D

 76 80  0     1  0  0  0  0  0999 V2000
    0.0345   -1.4741    0.6217 O   0  0  0  0  0  0  0  0  0  0  0  0
   -3.1594    0.1890    0.1507 O   0  0  0  0  0  0  0  0  0  0  0  0
   -4.5193    0.0078    2.0869 O   0  0  0  0  0  0  0  0  0  0  0  0
   -2.3127   -3.0928    0.1326 O   0  0  0  0  0  0  0  0  0  0  0  0
   -1.3657   -4.1061   -2.2707 O   0  0  0  0  0  0  0  0  0  0  0  0
    1.5983   -1.1926   -1.1323 O   0  0  0  0  0  0  0  0  0  0  0  0
    1.4547   -3.8874   -1.7475 O   0  0  0  0  0  0  0  0  0  0  0  0
   -6.0024    2.2527    1.0764 O   0  0  0  0  0  0  0  0  0  0  0  0
   -7.3226    0.7695   -0.8733 O   0  0  0  0  0  0  0  0  0  0  0  0
   -7.2079   -1.8113    0.3402 O   0  0  0  0  0  0  0  0  0  0  0  0
    3.7584    1.5695    0.0047 O   0  0  0  0  0  0  0  0  0  0  0  0
    3.8723   -2.4983   -0.2050 O   0  0  0  0  0  0  0  0  0  0  0  0
    6.2647   -2.4914    0.8499 O   0  0  0  0  0  0  0  0  0  0  0  0
    8.0993    1.7563    1.9158 O   0  0  0  0  0  0  0  0  0  0  0  0
   -1.5020    3.1363    0.4201 O   0  0  0  0  0  0  0  0  0  0  0  0
   -1.5787    4.0910   -2.1884 O   0  0  0  0  0  0  0  0  0  0  0  0
   -1.1061   -1.0205   -0.1237 C   0  0  1  0  0  0  0  0  0  0  0  0
   -1.7844   -2.1928   -0.8446 C   0  0  1  0  0  0  0  0  0  0  0  0
   -0.7725   -2.9309   -1.7255 C   0  0  1  0  0  0  0  0  0  0  0  0
    0.4568   -3.3210   -0.9047 C   0  0  2  0  0  0  0  0  0  0  0  0
   -5.2542    1.3873    0.2210 C   0  0  1  0  0  0  0  0  0  0  0  0
   -4.0688    0.8521    1.0221 C   0  0  2  0  0  0  0  0  0  0  0  0
   -6.1430    0.2431   -0.2698 C   0  0  1  0  0  0  0  0  0  0  0  0
   -6.5365   -0.6783    0.8854 C   0  0  2  0  0  0  0  0  0  0  0  0
    1.0355   -2.0999   -0.1856 C   0  0  2  0  0  0  0  0  0  0  0  0
   -2.0406   -0.3241    0.8597 C   0  0  0  0  0  0  0  0  0  0  0  0
   -5.2852   -1.1218    1.6561 C   0  0  2  0  0  0  0  0  0  0  0  0
   -5.6377   -1.9242    2.9056 C   0  0  0  0  0  0  0  0  0  0  0  0
    2.6639   -0.5002   -0.5992 C   0  0  0  0  0  0  0  0  0  0  0  0
    2.6905    0.8410   -0.4953 C   0  0  0  0  0  0  0  0  0  0  0  0
    3.8395   -1.2768   -0.1372 C   0  0  0  0  0  0  0  0  0  0  0  0
    4.9640   -0.4988    0.4050 C   0  0  0  0  0  0  0  0  0  0  0  0
    1.5705    1.6916   -0.9358 C   0  0  0  0  0  0  0  0  0  0  0  0
    4.8636    0.8900    0.4473 C   0  0  0  0  0  0  0  0  0  0  0  0
    6.1164   -1.1376    0.8695 C   0  0  0  0  0  0  0  0  0  0  0  0
    5.9174    1.6506    0.9548 C   0  0  0  0  0  0  0  0  0  0  0  0
    0.5496    2.0191   -0.0431 C   0  0  0  0  0  0  0  0  0  0  0  0
    1.5308    2.1700   -2.2457 C   0  0  0  0  0  0  0  0  0  0  0  0
    7.1688   -0.3748    1.3771 C   0  0  0  0  0  0  0  0  0  0  0  0
    7.0698    1.0165    1.4198 C   0  0  0  0  0  0  0  0  0  0  0  0
   -0.5102    2.8245   -0.4600 C   0  0  0  0  0  0  0  0  0  0  0  0
    0.4707    2.9752   -2.6627 C   0  0  0  0  0  0  0  0  0  0  0  0
   -0.5497    3.3025   -1.7698 C   0  0  0  0  0  0  0  0  0  0  0  0
   -1.3304    4.3198    1.1975 C   0  0  0  0  0  0  0  0  0  0  0  0
   -0.7856   -0.2969   -0.8810 H   0  0  0  0  0  0  0  0  0  0  0  0
   -2.6300   -1.8481   -1.4503 H   0  0  0  0  0  0  0  0  0  0  0  0
   -0.4703   -2.3023   -2.5721 H   0  0  0  0  0  0  0  0  0  0  0  0
    0.1698   -4.0892   -0.1757 H   0  0  0  0  0  0  0  0  0  0  0  0
   -4.9210    1.9810   -0.6380 H   0  0  0  0  0  0  0  0  0  0  0  0
   -3.5500    1.6932    1.4964 H   0  0  0  0  0  0  0  0  0  0  0  0
   -5.6163   -0.3271   -1.0453 H   0  0  0  0  0  0  0  0  0  0  0  0
   -7.2438   -0.1650    1.5474 H   0  0  0  0  0  0  0  0  0  0  0  0
    1.7684   -2.4786    0.5307 H   0  0  0  0  0  0  0  0  0  0  0  0
   -1.5136    0.4871    1.3726 H   0  0  0  0  0  0  0  0  0  0  0  0
   -2.3504   -1.0295    1.6397 H   0  0  0  0  0  0  0  0  0  0  0  0
   -4.6615   -1.7639    1.0222 H   0  0  0  0  0  0  0  0  0  0  0  0
   -6.2360   -1.3237    3.5995 H   0  0  0  0  0  0  0  0  0  0  0  0
   -4.7270   -2.2114    3.4426 H   0  0  0  0  0  0  0  0  0  0  0  0
   -6.1947   -2.8323    2.6566 H   0  0  0  0  0  0  0  0  0  0  0  0
   -2.7102   -3.8400   -0.3464 H   0  0  0  0  0  0  0  0  0  0  0  0
   -2.1494   -3.8299   -2.7760 H   0  0  0  0  0  0  0  0  0  0  0  0
    2.2188   -4.1099   -1.1887 H   0  0  0  0  0  0  0  0  0  0  0  0
   -5.4226    2.9927    1.3254 H   0  0  0  0  0  0  0  0  0  0  0  0
   -7.8680    0.0145   -1.1532 H   0  0  0  0  0  0  0  0  0  0  0  0
   -6.5803   -2.2881   -0.2295 H   0  0  0  0  0  0  0  0  0  0  0  0
    5.8426    2.7346    0.9889 H   0  0  0  0  0  0  0  0  0  0  0  0
    0.5802    1.6568    0.9819 H   0  0  0  0  0  0  0  0  0  0  0  0
    2.3192    1.9237   -2.9528 H   0  0  0  0  0  0  0  0  0  0  0  0
    8.0665   -0.8706    1.7390 H   0  0  0  0  0  0  0  0  0  0  0  0
    0.4526    3.3411   -3.6858 H   0  0  0  0  0  0  0  0  0  0  0  0
    5.4733   -2.9153    0.4845 H   0  0  0  0  0  0  0  0  0  0  0  0
    8.8142    1.1571    2.1915 H   0  0  0  0  0  0  0  0  0  0  0  0
   -1.4378    4.3267   -3.1214 H   0  0  0  0  0  0  0  0  0  0  0  0
   -1.2532    5.1989    0.5501 H   0  0  0  0  0  0  0  0  0  0  0  0
   -2.2063    4.4354    1.8417 H   0  0  0  0  0  0  0  0  0  0  0  0
   -0.4398    4.2376    1.8286 H   0  0  0  0  0  0  0  0  0  0  0  0
  1 17  1  0  0  0  0
  1 25  1  0  0  0  0
  2 22  1  0  0  0  0
  2 26  1  0  0  0  0
  3 22  1  0  0  0  0
  3 27  1  0  0  0  0
  4 18  1  0  0  0  0
  4 60  1  0  0  0  0
  5 19  1  0  0  0  0
  5 61  1  0  0  0  0
  6 25  1  0  0  0  0
  6 29  1  0  0  0  0
  7 20  1  0  0  0  0
  7 62  1  0  0  0  0
  8 21  1  0  0  0  0
  8 63  1  0  0  0  0
  9 23  1  0  0  0  0
  9 64  1  0  0  0  0
 10 24  1  0  0  0  0
 10 65  1  0  0  0  0
 11 30  1  0  0  0  0
 11 34  1  0  0  0  0
 12 31  2  0  0  0  0
 13 35  1  0  0  0  0
 13 71  1  0  0  0  0
 14 40  1  0  0  0  0
 14 72  1  0  0  0  0
 15 41  1  0  0  0  0
 15 44  1  0  0  0  0
 16 43  1  0  0  0  0
 16 73  1  0  0  0  0
 17 18  1  0  0  0  0
 17 26  1  0  0  0  0
 17 45  1  0  0  0  0
 18 19  1  0  0  0  0
 18 46  1  0  0  0  0
 19 20  1  0  0  0  0
 19 47  1  0  0  0  0
 20 25  1  0  0  0  0
 20 48  1  0  0  0  0
 21 22  1  0  0  0  0
 21 23  1  0  0  0  0
 21 49  1  0  0  0  0
 22 50  1  0  0  0  0
 23 24  1  0  0  0  0
 23 51  1  0  0  0  0
 24 27  1  0  0  0  0
 24 52  1  0  0  0  0
 25 53  1  0  0  0  0
 26 54  1  0  0  0  0
 26 55  1  0  0  0  0
 27 28  1  0  0  0  0
 27 56  1  0  0  0  0
 28 57  1  0  0  0  0
 28 58  1  0  0  0  0
 28 59  1  0  0  0  0
 29 30  2  0  0  0  0
 29 31  1  0  0  0  0
 30 33  1  0  0  0  0
 31 32  1  0  0  0  0
 32 34  1  0  0  0  0
 32 35  2  0  0  0  0
 33 37  2  0  0  0  0
 33 38  1  0  0  0  0
 34 36  2  0  0  0  0
 35 39  1  0  0  0  0
 36 40  1  0  0  0  0
 36 66  1  0  0  0  0
 37 41  1  0  0  0  0
 37 67  1  0  0  0  0
 38 42  2  0  0  0  0
 38 68  1  0  0  0  0
 39 40  2  0  0  0  0
 39 69  1  0  0  0  0
 41 43  2  0  0  0  0
 42 43  1  0  0  0  0
 42 70  1  0  0  0  0
 44 74  1  0  0  0  0
 44 75  1  0  0  0  0
 44 76  1  0  0  0  0
M  END
> <PUBCHEM_COMPOUND_CID>
5491808

> <PUBCHEM_CONFORMER_RMSD>
1.2

> <PUBCHEM_CONFORMER_DIVERSEORDER>
6
292
63
221
234
199
50
265
118
146
43
29
77
273
194
223
236
159
295
198
274
296
307
187
130
188
65
127
74
325
205
78
208
135
318
90
10
323
132
82
225
305
109
209
201
298
141
165
22
72
92
249
48
47
86
80
73
112
37
68
69
280
1
170
150
145
166
95
324
286
245
189
276
15
320
31
9
46
129
34
119
326
239
254
268
186
238
269
44
55
262
289
217
288
106
124
18
196
277
212
23
12
191
153
192
173
49
148
231
290
275
181
197
218
97
190
111
161
204
66
98
182
259
177
116
183
8
329
278
244
314
294
220
251
21
227
14
121
246
200
83
310
203
140
158
309
64
258
114
62
13
163
4
136
59
232
229
313
162
147
272
321
81
308
279
164
271
256
297
261
85
242
219
25
96
35
61
235
247
241
281
126
315
184
213
193
128
156
38
155
300
255
71
284
185
117
100
317
304
2
253
52
169
51
134
264
144
299
32
195
303
104
45
103
202
76
215
210
3
36
266
230
233
283
154
102
88
91
53
84
291
125
287
319
207
228
123
206
311
115
120
172
58
19
79
26
149
216
237
41
270
175
108
250
171
139
101
94
312
168
105
142
293
17
328
39
267
30
60
282
257
157
252
138
87
143
174
57
301
20
137
16
56
306
70
122
180
316
176
7
75
110
240
40
167
327
28
89
99
107
302
33
67
54
214
133
222
226
260
211
160
93
178
322
285
248
151
179
5
11
42
131
27
224
263
243
113
24
152

> <PUBCHEM_MMFF94_PARTIAL_CHARGES>
57
1 -0.56
10 -0.68
11 -0.16
12 -0.57
13 -0.53
14 -0.53
15 -0.36
16 -0.53
17 0.28
18 0.28
19 0.28
2 -0.56
20 0.28
21 0.28
22 0.56
23 0.28
24 0.28
25 0.56
26 0.28
27 0.28
29 0.09
3 -0.56
30 0.05
31 0.47
32 0.09
33 0.03
34 0.08
35 0.08
36 -0.15
37 -0.15
38 -0.15
39 -0.15
4 -0.68
40 0.08
41 0.08
42 -0.15
43 0.08
44 0.28
5 -0.68
6 -0.36
60 0.4
61 0.4
62 0.4
63 0.4
64 0.4
65 0.4
66 0.15
67 0.15
68 0.15
69 0.15
7 -0.68
70 0.15
71 0.45
72 0.45
73 0.45
8 -0.68
9 -0.68

> <PUBCHEM_EFFECTIVE_ROTOR_COUNT>
9.4

> <PUBCHEM_PHARMACOPHORE_FEATURES>
27
1 1 acceptor
1 10 acceptor
1 10 donor
1 11 acceptor
1 12 acceptor
1 13 donor
1 14 donor
1 15 acceptor
1 16 donor
1 2 acceptor
1 3 acceptor
1 4 acceptor
1 4 donor
1 5 acceptor
1 5 donor
1 6 acceptor
1 7 acceptor
1 7 donor
1 8 acceptor
1 8 donor
1 9 acceptor
1 9 donor
6 1 17 18 19 20 25 rings
6 11 29 30 31 32 34 rings
6 3 21 22 23 24 27 rings
6 32 34 35 36 39 40 rings
6 33 37 38 41 42 43 rings

> <PUBCHEM_HEAVY_ATOM_COUNT>
44

> <PUBCHEM_ATOM_DEF_STEREO_COUNT>
9

> <PUBCHEM_ATOM_UDEF_STEREO_COUNT>
1

> <PUBCHEM_BOND_DEF_STEREO_COUNT>
0

> <PUBCHEM_BOND_UDEF_STEREO_COUNT>
0

> <PUBCHEM_ISOTOPIC_ATOM_COUNT>
0

> <PUBCHEM_COMPONENT_COUNT>
1

> <PUBCHEM_CACTVS_TAUTO_COUNT>
69

> <PUBCHEM_CONFORMER_ID>
0053CC6000000006

> <PUBCHEM_MMFF94_ENERGY>
150.0631

> <PUBCHEM_FEATURE_SELFOVERLAP>
137.2

> <PUBCHEM_SHAPE_FINGERPRINT>
10674148 151 11674868996821025420
10930396 42 18189034517422641416
10939801 23 18338237167507291016
11146851 88 18335423495834686307
11513181 2 17771636655097859559
11828532 37 16878805936333498235
12202916 173 18259981570557210667
12422481 6 18409450263104309560
12677640 9 17912920875025380647
13811026 1 18409164394423553787
13947930 73 17024045932382238866
14028597 1 17022890234530119544
14394314 77 18272654511382850089
14395042 24 18267868466511713923
15021287 119 18260828262987488159
15274700 208 17202189906728227160
15815584 197 18265075573495527415
15849732 13 18408882957785011715
15968369 153 18342740689281639308
16994733 274 14979688667117841443
19319366 153 17323548622270259365
1979834 28 18269293316814763095
24771293 8 18412547600202789633
25019877 29 17703793625935570215
255183 313 18342449366060794478
354706 109 18192412105247464705
4403749 210 18339631266167377992
469060 322 16951131655941388732
5171179 24 17695077603856954567
6004065 56 18342735260854563177

> <PUBCHEM_SHAPE_MULTIPOLES>
811.59
17.93
5.03
2.13
2.82
0.86
-0.29
-1.42
13.6
-1.29
-2.7
-0.72
0.2
1

> <PUBCHEM_SHAPE_SELFOVERLAP>
1764.859

> <PUBCHEM_SHAPE_VOLUME>
437.2

> <PUBCHEM_COORDINATE_TYPE>
2
5
10

$$$$
