131851742
  -OEChem-02172602593D

 39 41  0     1  0  0  0  0  0999 V2000
    0.7795   -0.5025   -1.2025 C   0  0  1  0  0  0  0  0  0  0  0  0
   -0.5588   -0.8622   -0.4992 C   0  0  1  0  0  0  0  0  0  0  0  0
    1.4722    0.6947   -0.4858 C   0  0  2  0  0  0  0  0  0  0  0  0
    1.4554   -1.4596    0.6963 C   0  0  2  0  0  0  0  0  0  0  0  0
    1.6478   -1.7005   -0.7979 C   0  0  0  0  0  0  0  0  0  0  0  0
   -0.0752   -1.5076    0.8277 C   0  0  0  0  0  0  0  0  0  0  0  0
   -1.4977    0.3421   -0.3528 C   0  0  2  0  0  0  0  0  0  0  0  0
    1.8812   -0.0072    0.8076 C   0  0  0  0  0  0  0  0  0  0  0  0
    0.5063    1.8804   -0.2915 C   0  0  0  0  0  0  0  0  0  0  0  0
   -0.8213    1.5126    0.3660 C   0  0  0  0  0  0  0  0  0  0  0  0
    2.7046    1.1842   -1.2679 C   0  0  0  0  0  0  0  0  0  0  0  0
   -2.8075   -0.0351    0.3401 C   0  0  0  0  0  0  0  0  0  0  0  0
    2.5320    0.5266    1.8472 C   0  0  0  0  0  0  0  0  0  0  0  0
   -3.4597   -1.2244   -0.3597 C   0  0  0  0  0  0  0  0  0  0  0  0
   -3.7586    1.1585    0.3725 C   0  0  0  0  0  0  0  0  0  0  0  0
    0.6708   -0.3672   -2.2823 H   0  0  0  0  0  0  0  0  0  0  0  0
   -1.0336   -1.6379   -1.1128 H   0  0  0  0  0  0  0  0  0  0  0  0
    1.9885   -2.1504    1.3522 H   0  0  0  0  0  0  0  0  0  0  0  0
    2.6895   -1.6313   -1.1248 H   0  0  0  0  0  0  0  0  0  0  0  0
    1.2372   -2.6595   -1.1338 H   0  0  0  0  0  0  0  0  0  0  0  0
   -0.4211   -2.5471    0.8761 H   0  0  0  0  0  0  0  0  0  0  0  0
   -0.4283   -0.9986    1.7293 H   0  0  0  0  0  0  0  0  0  0  0  0
   -1.7347    0.6826   -1.3720 H   0  0  0  0  0  0  0  0  0  0  0  0
    0.2891    2.3251   -1.2724 H   0  0  0  0  0  0  0  0  0  0  0  0
    0.9861    2.6691    0.3020 H   0  0  0  0  0  0  0  0  0  0  0  0
   -0.6630    1.2842    1.4262 H   0  0  0  0  0  0  0  0  0  0  0  0
   -1.4496    2.4091    0.3334 H   0  0  0  0  0  0  0  0  0  0  0  0
    2.4216    1.5034   -2.2774 H   0  0  0  0  0  0  0  0  0  0  0  0
    3.4756    0.4139   -1.3703 H   0  0  0  0  0  0  0  0  0  0  0  0
    3.1727    2.0411   -0.7692 H   0  0  0  0  0  0  0  0  0  0  0  0
   -2.6187   -0.3267    1.3807 H   0  0  0  0  0  0  0  0  0  0  0  0
    2.8203    1.5718    1.8521 H   0  0  0  0  0  0  0  0  0  0  0  0
    2.7866   -0.0734    2.7140 H   0  0  0  0  0  0  0  0  0  0  0  0
   -2.9117   -2.1552   -0.1856 H   0  0  0  0  0  0  0  0  0  0  0  0
   -4.4715   -1.3913    0.0272 H   0  0  0  0  0  0  0  0  0  0  0  0
   -3.5436   -1.0618   -1.4397 H   0  0  0  0  0  0  0  0  0  0  0  0
   -4.7488    0.8529    0.7294 H   0  0  0  0  0  0  0  0  0  0  0  0
   -3.4147    1.9386    1.0580 H   0  0  0  0  0  0  0  0  0  0  0  0
   -3.8881    1.5989   -0.6220 H   0  0  0  0  0  0  0  0  0  0  0  0
  1  2  1  0  0  0  0
  1  3  1  0  0  0  0
  1  5  1  0  0  0  0
  1 16  1  0  0  0  0
  2  6  1  0  0  0  0
  2  7  1  0  0  0  0
  2 17  1  0  0  0  0
  3  8  1  0  0  0  0
  3  9  1  0  0  0  0
  3 11  1  0  0  0  0
  4  5  1  0  0  0  0
  4  6  1  0  0  0  0
  4  8  1  0  0  0  0
  4 18  1  0  0  0  0
  5 19  1  0  0  0  0
  5 20  1  0  0  0  0
  6 21  1  0  0  0  0
  6 22  1  0  0  0  0
  7 10  1  0  0  0  0
  7 12  1  0  0  0  0
  7 23  1  0  0  0  0
  8 13  2  0  0  0  0
  9 10  1  0  0  0  0
  9 24  1  0  0  0  0
  9 25  1  0  0  0  0
 10 26  1  0  0  0  0
 10 27  1  0  0  0  0
 11 28  1  0  0  0  0
 11 29  1  0  0  0  0
 11 30  1  0  0  0  0
 12 14  1  0  0  0  0
 12 15  1  0  0  0  0
 12 31  1  0  0  0  0
 13 32  1  0  0  0  0
 13 33  1  0  0  0  0
 14 34  1  0  0  0  0
 14 35  1  0  0  0  0
 14 36  1  0  0  0  0
 15 37  1  0  0  0  0
 15 38  1  0  0  0  0
 15 39  1  0  0  0  0
M  END
> <PUBCHEM_COMPOUND_CID>
131851742

> <PUBCHEM_CONFORMER_RMSD>
0.6

> <PUBCHEM_CONFORMER_DIVERSEORDER>
1
2

> <PUBCHEM_MMFF94_PARTIAL_CHARGES>
6
13 -0.3
3 0.14
32 0.15
33 0.15
4 0.14
8 -0.28

> <PUBCHEM_EFFECTIVE_ROTOR_COUNT>
2

> <PUBCHEM_PHARMACOPHORE_FEATURES>
3
3 12 14 15 hydrophobe
6 1 2 3 7 9 10 rings
7 1 2 3 4 5 6 8 rings

> <PUBCHEM_HEAVY_ATOM_COUNT>
15

> <PUBCHEM_ATOM_DEF_STEREO_COUNT>
5

> <PUBCHEM_ATOM_UDEF_STEREO_COUNT>
0

> <PUBCHEM_BOND_DEF_STEREO_COUNT>
0

> <PUBCHEM_BOND_UDEF_STEREO_COUNT>
0

> <PUBCHEM_ISOTOPIC_ATOM_COUNT>
0

> <PUBCHEM_COMPONENT_COUNT>
1

> <PUBCHEM_CACTVS_TAUTO_COUNT>
1

> <PUBCHEM_CONFORMER_ID>
07DBE5DE00000001

> <PUBCHEM_MMFF94_ENERGY>
53.1043

> <PUBCHEM_FEATURE_SELFOVERLAP>
15.938

> <PUBCHEM_SHAPE_FINGERPRINT>
10948715 1 17969797460562932604
10980938 120 18411142407420721737
12326174 3 17095529469907663344
12382932 28 18342166757233901033
12423570 1 18341599387669409126
12491281 212 17702406008106935929
12696612 119 18408318882692642029
12932764 1 17489592272802621039
13024252 1 17472078190923073400
13296908 3 18410300173061229691
14178342 30 18341886399106884451
144361 1 18199769031879308260
14817 1 17034178095567615286
15775835 57 18261683635657083517
16945 1 18269551800773321207
17990270 104 18410017641179497543
20511035 2 17909251499664269428
20559304 39 18410574019875186381
21501502 16 18334295379397476309
21524375 3 17899141791063547492
230 275 18410855443064369683
2334 1 18411420605231975047
23402539 116 18412267255018515764
23419403 2 16886042839287603792
23557571 272 17203321282269627339
241688 4 18049168765330223120
2748010 2 16895677559144597677
4369600 1 18339372970980756452
5084963 1 18268153067300663810
528886 8 18341062911968188660
63268167 104 18339655472618064121
7364860 26 17916866807498093070

> <PUBCHEM_SHAPE_MULTIPOLES>
308.69
4.77
1.9
1.29
4.45
0.01
0.22
-0.6
0.39
-0.15
-0.09
-1.05
-0.03
-0.31

> <PUBCHEM_SHAPE_SELFOVERLAP>
660.906

> <PUBCHEM_SHAPE_VOLUME>
171.1

> <PUBCHEM_COORDINATE_TYPE>
2
5
10

$$$$
