12921590
  -OEChem-02172602513D

 27 27  0     1  0  0  0  0  0999 V2000
    0.9989    0.1682   -0.5572 P   0  0  1  0  0  0  0  0  0  0  0  0
   -0.8546    0.9465    0.9743 O   0  0  0  0  0  0  0  0  0  0  0  0
    2.1152   -0.5403    0.3792 O   0  0  0  0  0  0  0  0  0  0  0  0
    0.2052    2.6040   -0.3314 O   0  0  0  0  0  0  0  0  0  0  0  0
    1.5353    0.6415   -1.8774 O   0  0  0  0  0  0  0  0  0  0  0  0
   -2.7426   -1.8955    0.0948 O   0  0  0  0  0  0  0  0  0  0  0  0
   -0.3491   -0.7185   -0.5123 N   0  0  0  0  0  0  0  0  0  0  0  0
   -2.4371   -0.6719    0.6493 N   0  0  0  0  0  0  0  0  0  0  0  0
    0.3944    1.4747    0.4999 C   0  0  2  0  0  0  0  0  0  0  0  0
   -1.2009   -0.2065    0.3183 C   0  0  0  0  0  0  0  0  0  0  0  0
    2.8094   -1.6470   -0.1676 C   0  0  0  0  0  0  0  0  0  0  0  0
    3.7997   -2.1621    0.8550 C   0  0  0  0  0  0  0  0  0  0  0  0
   -0.3744    3.6922    0.3802 C   0  0  0  0  0  0  0  0  0  0  0  0
   -3.8995   -1.6856   -0.7053 C   0  0  0  0  0  0  0  0  0  0  0  0
    1.0613    1.6992    1.3385 H   0  0  0  0  0  0  0  0  0  0  0  0
    2.0918   -2.4312   -0.4283 H   0  0  0  0  0  0  0  0  0  0  0  0
    3.3355   -1.3335   -1.0747 H   0  0  0  0  0  0  0  0  0  0  0  0
   -3.0458   -0.2853    1.3610 H   0  0  0  0  0  0  0  0  0  0  0  0
    4.3546   -3.0195    0.4642 H   0  0  0  0  0  0  0  0  0  0  0  0
    4.5110   -1.3772    1.1325 H   0  0  0  0  0  0  0  0  0  0  0  0
    3.2842   -2.4633    1.7730 H   0  0  0  0  0  0  0  0  0  0  0  0
    0.2491    3.9686    1.2360 H   0  0  0  0  0  0  0  0  0  0  0  0
   -1.3866    3.4439    0.7129 H   0  0  0  0  0  0  0  0  0  0  0  0
   -0.4352    4.5486   -0.2969 H   0  0  0  0  0  0  0  0  0  0  0  0
   -4.7417   -1.3510   -0.0903 H   0  0  0  0  0  0  0  0  0  0  0  0
   -4.1698   -2.6379   -1.1699 H   0  0  0  0  0  0  0  0  0  0  0  0
   -3.6969   -0.9599   -1.5005 H   0  0  0  0  0  0  0  0  0  0  0  0
  1  3  1  0  0  0  0
  1  5  2  0  0  0  0
  1  7  1  0  0  0  0
  1  9  1  0  0  0  0
  2  9  1  0  0  0  0
  2 10  1  0  0  0  0
  3 11  1  0  0  0  0
  4  9  1  0  0  0  0
  4 13  1  0  0  0  0
  6  8  1  0  0  0  0
  6 14  1  0  0  0  0
  7 10  2  0  0  0  0
  8 10  1  0  0  0  0
  8 18  1  0  0  0  0
  9 15  1  0  0  0  0
 11 12  1  0  0  0  0
 11 16  1  0  0  0  0
 11 17  1  0  0  0  0
 12 19  1  0  0  0  0
 12 20  1  0  0  0  0
 12 21  1  0  0  0  0
 13 22  1  0  0  0  0
 13 23  1  0  0  0  0
 13 24  1  0  0  0  0
 14 25  1  0  0  0  0
 14 26  1  0  0  0  0
 14 27  1  0  0  0  0
M  END
> <PUBCHEM_COMPOUND_CID>
12921590

> <PUBCHEM_CONFORMER_RMSD>
0.6

> <PUBCHEM_CONFORMER_DIVERSEORDER>
1
86
59
99
64
30
66
15
104
90
23
48
126
77
54
69
63
107
119
112
53
105
98
122
85
49
33
8
51
91
26
36
93
83
113
125
22
35
106
82
100
97
95
32
79
108
111
120
2
4
89
5
16
114
94
28
70
116
75
74
12
101
11
41
81
10
57
47
71
62
103
52
46
61
39
118
115
78
19
109
87
45
31
123
56
40
55
68
72
121
124
3
67
13
9
102
110
38
14
34
65
27
88
7
84
80
43
50
96
117
58
6
37
20
42
73
24
60
18
44
29
25
92
21
76
17

> <PUBCHEM_MMFF94_PARTIAL_CHARGES>
14
1 1.29
10 0.65
11 0.28
13 0.28
14 0.28
18 0.4
2 -0.43
3 -0.55
4 -0.56
5 -0.7
6 -0.26
7 -0.77
8 -0.47
9 0.56

> <PUBCHEM_EFFECTIVE_ROTOR_COUNT>
5.4

> <PUBCHEM_PHARMACOPHORE_FEATURES>
4
1 4 acceptor
1 8 donor
3 7 8 10 cation
5 1 2 7 9 10 rings

> <PUBCHEM_HEAVY_ATOM_COUNT>
14

> <PUBCHEM_ATOM_DEF_STEREO_COUNT>
0

> <PUBCHEM_ATOM_UDEF_STEREO_COUNT>
2

> <PUBCHEM_BOND_DEF_STEREO_COUNT>
0

> <PUBCHEM_BOND_UDEF_STEREO_COUNT>
0

> <PUBCHEM_ISOTOPIC_ATOM_COUNT>
0

> <PUBCHEM_COMPONENT_COUNT>
1

> <PUBCHEM_CACTVS_TAUTO_COUNT>
3

> <PUBCHEM_CONFORMER_ID>
00C52AF600000001

> <PUBCHEM_MMFF94_ENERGY>
22.2394

> <PUBCHEM_FEATURE_SELFOVERLAP>
20.297

> <PUBCHEM_SHAPE_FINGERPRINT>
11265709 11 18410575071789032035
12500047 106 17618785756834616330
14817 1 13163215000182478444
16945 1 18121512515875006161
19021347 4 17474670550898324928
20524608 308 17834679296953555522
20645477 70 18123465249048916343
20671657 53 18412822521207151575
20711985 344 18053416251578143204
21524375 3 17049084187442972825
22112679 90 18197244514363789640
2255824 54 17981616166894884639
23402539 116 18126834998673793821
23419403 2 17465614174590006092
23532345 88 18054773251381255551
23552423 10 17981899845337387755
257057 1 18411697681777182697
3086196 2 18265884762344684066
6338986 31 18411699880853354551
7364860 26 18122905592664640499
81228 2 18193845838007125000

> <PUBCHEM_SHAPE_MULTIPOLES>
252.65
5.14
3.45
1.06
0.96
3.38
-0.33
-6.58
0.42
-1.34
0.32
0.31
0.09
-0.85

> <PUBCHEM_SHAPE_SELFOVERLAP>
479.713

> <PUBCHEM_SHAPE_VOLUME>
158.1

> <PUBCHEM_COORDINATE_TYPE>
2
5
10

$$$$
