10091877
  -OEChem-02172602523D

 46 46  0     1  0  0  0  0  0999 V2000
   -6.0214    1.1489   -0.3276 F   0  0  0  0  0  0  0  0  0  0  0  0
   -5.2703   -0.3319   -1.7403 F   0  0  0  0  0  0  0  0  0  0  0  0
   -6.8218   -0.8695    1.3682 F   0  0  0  0  0  0  0  0  0  0  0  0
   -7.6768   -0.9972   -0.6346 F   0  0  0  0  0  0  0  0  0  0  0  0
   -6.0784   -2.3595   -0.0412 F   0  0  0  0  0  0  0  0  0  0  0  0
    7.1494   -0.0132   -1.9374 O   0  0  0  0  0  0  0  0  0  0  0  0
   -0.9484    1.7460    0.0768 O   0  0  0  0  0  0  0  0  0  0  0  0
    6.7206   -1.3847    1.4680 N   0  0  0  0  0  0  0  0  0  0  0  0
    6.3941   -1.2135    0.0458 C   0  0  1  0  0  0  0  0  0  0  0  0
    4.9148   -0.7700   -0.0994 C   0  0  0  0  0  0  0  0  0  0  0  0
    4.5580    0.5479    0.6036 C   0  0  0  0  0  0  0  0  0  0  0  0
    7.3836   -0.1917   -0.5456 C   0  0  0  0  0  0  0  0  0  0  0  0
    6.5672   -2.5732   -0.6574 C   0  0  0  0  0  0  0  0  0  0  0  0
    3.0899    0.8678    0.4629 C   0  0  0  0  0  0  0  0  0  0  0  0
   -3.1747    0.8469   -0.1795 C   0  0  0  0  0  0  0  0  0  0  0  0
   -4.1891   -0.1692    0.3460 C   0  0  0  0  0  0  0  0  0  0  0  0
    2.6405    1.6215   -0.6215 C   0  0  0  0  0  0  0  0  0  0  0  0
    2.1822    0.4094    1.4175 C   0  0  0  0  0  0  0  0  0  0  0  0
   -1.8727    0.7987    0.6096 C   0  0  0  0  0  0  0  0  0  0  0  0
   -5.5027   -0.1017   -0.4231 C   0  0  0  0  0  0  0  0  0  0  0  0
    0.3758    1.4583    0.2037 C   0  0  0  0  0  0  0  0  0  0  0  0
    1.2836    1.9167   -0.7511 C   0  0  0  0  0  0  0  0  0  0  0  0
    0.8251    0.7046    1.2880 C   0  0  0  0  0  0  0  0  0  0  0  0
   -6.5284   -1.0914    0.0687 C   0  0  0  0  0  0  0  0  0  0  0  0
    4.6643   -0.6852   -1.1659 H   0  0  0  0  0  0  0  0  0  0  0  0
    4.2640   -1.5652    0.2923 H   0  0  0  0  0  0  0  0  0  0  0  0
    5.1411    1.3778    0.1876 H   0  0  0  0  0  0  0  0  0  0  0  0
    4.8124    0.5038    1.6694 H   0  0  0  0  0  0  0  0  0  0  0  0
    7.3066    0.7836   -0.0538 H   0  0  0  0  0  0  0  0  0  0  0  0
    8.4171   -0.5394   -0.4275 H   0  0  0  0  0  0  0  0  0  0  0  0
    5.9239   -3.3397   -0.2092 H   0  0  0  0  0  0  0  0  0  0  0  0
    6.3069   -2.5099   -1.7199 H   0  0  0  0  0  0  0  0  0  0  0  0
    7.6019   -2.9295   -0.5900 H   0  0  0  0  0  0  0  0  0  0  0  0
    7.6685   -1.7467    1.5665 H   0  0  0  0  0  0  0  0  0  0  0  0
    6.1053   -2.0836    1.8830 H   0  0  0  0  0  0  0  0  0  0  0  0
   -2.9632    0.6608   -1.2398 H   0  0  0  0  0  0  0  0  0  0  0  0
   -3.5882    1.8618   -0.1297 H   0  0  0  0  0  0  0  0  0  0  0  0
   -4.3756    0.0290    1.4081 H   0  0  0  0  0  0  0  0  0  0  0  0
   -3.7642   -1.1762    0.2605 H   0  0  0  0  0  0  0  0  0  0  0  0
    3.3378    1.9823   -1.3728 H   0  0  0  0  0  0  0  0  0  0  0  0
    2.5214   -0.1752    2.2687 H   0  0  0  0  0  0  0  0  0  0  0  0
   -2.0639    1.0431    1.6610 H   0  0  0  0  0  0  0  0  0  0  0  0
   -1.4800   -0.2243    0.5406 H   0  0  0  0  0  0  0  0  0  0  0  0
    0.9392    2.5035   -1.5982 H   0  0  0  0  0  0  0  0  0  0  0  0
    0.1565    0.3517    2.0676 H   0  0  0  0  0  0  0  0  0  0  0  0
    7.8018    0.6336   -2.2560 H   0  0  0  0  0  0  0  0  0  0  0  0
  1 20  1  0  0  0  0
  2 20  1  0  0  0  0
  3 24  1  0  0  0  0
  4 24  1  0  0  0  0
  5 24  1  0  0  0  0
  6 12  1  0  0  0  0
  6 46  1  0  0  0  0
  7 19  1  0  0  0  0
  7 21  1  0  0  0  0
  8  9  1  0  0  0  0
  8 34  1  0  0  0  0
  8 35  1  0  0  0  0
  9 10  1  0  0  0  0
  9 12  1  0  0  0  0
  9 13  1  0  0  0  0
 10 11  1  0  0  0  0
 10 25  1  0  0  0  0
 10 26  1  0  0  0  0
 11 14  1  0  0  0  0
 11 27  1  0  0  0  0
 11 28  1  0  0  0  0
 12 29  1  0  0  0  0
 12 30  1  0  0  0  0
 13 31  1  0  0  0  0
 13 32  1  0  0  0  0
 13 33  1  0  0  0  0
 14 17  2  0  0  0  0
 14 18  1  0  0  0  0
 15 16  1  0  0  0  0
 15 19  1  0  0  0  0
 15 36  1  0  0  0  0
 15 37  1  0  0  0  0
 16 20  1  0  0  0  0
 16 38  1  0  0  0  0
 16 39  1  0  0  0  0
 17 22  1  0  0  0  0
 17 40  1  0  0  0  0
 18 23  2  0  0  0  0
 18 41  1  0  0  0  0
 19 42  1  0  0  0  0
 19 43  1  0  0  0  0
 20 24  1  0  0  0  0
 21 22  2  0  0  0  0
 21 23  1  0  0  0  0
 22 44  1  0  0  0  0
 23 45  1  0  0  0  0
M  END
> <PUBCHEM_COMPOUND_CID>
10091877

> <PUBCHEM_CONFORMER_RMSD>
1

> <PUBCHEM_CONFORMER_DIVERSEORDER>
1
101
94
8
103
122
56
125
59
126
113
12
84
91
65
68
78
102
71
118
111
38
116
100
33
31
130
128
19
112
127
114
66
30
46
131
119
17
93
75
52
76
123
83
5
61
89
58
86
73
124
80
72
108
43
39
96
22
104
54
29
120
55
117
69
47
32
97
36
107
64
34
6
48
82
45
67
109
57
121
62
90
87
50
129
42
70
53
10
23
98
49
115
14
27
77
3
92
74
9
24
106
105
51
63
79
11
25
35
110
99
16
60
15
13
81
85
2
40
4
7
28
37
26
95
44
88
21
20
41
18

> <PUBCHEM_MMFF94_PARTIAL_CHARGES>
27
1 -0.34
11 0.14
12 0.28
14 -0.14
17 -0.15
18 -0.15
19 0.28
2 -0.34
20 0.68
21 0.08
22 -0.15
23 -0.15
24 1.02
3 -0.34
34 0.36
35 0.36
4 -0.34
40 0.15
41 0.15
44 0.15
45 0.15
46 0.4
5 -0.34
6 -0.68
7 -0.36
8 -0.99
9 0.27

> <PUBCHEM_EFFECTIVE_ROTOR_COUNT>
10

> <PUBCHEM_PHARMACOPHORE_FEATURES>
6
1 6 acceptor
1 6 donor
1 7 acceptor
1 8 cation
1 8 donor
6 14 17 18 21 22 23 rings

> <PUBCHEM_HEAVY_ATOM_COUNT>
24

> <PUBCHEM_ATOM_DEF_STEREO_COUNT>
1

> <PUBCHEM_ATOM_UDEF_STEREO_COUNT>
0

> <PUBCHEM_BOND_DEF_STEREO_COUNT>
0

> <PUBCHEM_BOND_UDEF_STEREO_COUNT>
0

> <PUBCHEM_ISOTOPIC_ATOM_COUNT>
0

> <PUBCHEM_COMPONENT_COUNT>
1

> <PUBCHEM_CACTVS_TAUTO_COUNT>
1

> <PUBCHEM_CONFORMER_ID>
0099FD6500000001

> <PUBCHEM_MMFF94_ENERGY>
42.0622

> <PUBCHEM_FEATURE_SELFOVERLAP>
30.446

> <PUBCHEM_SHAPE_FINGERPRINT>
10 15 13183018531817101178
10670039 82 14923935730965395149
10693767 8 17895186663587619762
10740516 88 18130241354437934790
11823591 26 10809342269361884800
12166972 35 18413108380971321784
125118 31 9727640513921276210
13533116 47 18201998854846909496
13540713 4 16517676873302116520
13540713 5 14403464417241572624
13668630 136 18260264179368052315
13673619 4 18131067130255583072
13685833 64 18343582941079476000
13782708 43 18202276979469235800
14123256 34 18333733528844919577
14178184 131 17987516082171951367
14216079 64 18413669101978653679
14251757 52 10881394335575909783
14251764 18 16128653072262347088
14598715 104 10663824031777511971
14849402 71 12535043374422455530
15183329 4 17603863390748146409
15301273 46 13973972008631398968
15352257 5 18342177777745851711
15419008 145 10951503552925500294
15419008 91 18267279024351029232
15475509 35 17774995749205203210
15510800 12 18129958792865867190
17134984 74 18113337501521877706
1768 124 17918273138973918166
18335252 114 12540693730750010034
19784866 240 18411140238283279209
2026 5 18341046337774796311
20281389 69 9367348136936564912
20526848 3 8790885194010000842
21150785 3 17675927603599676636
21267235 1 18260832618305729577
21521239 73 17894915122796060352
21637258 2 18343012268938594664
22224240 67 12895351092597297957
22288116 15 14129352827194306185
22956985 138 17413890734523245022
23522609 53 18121250656405417656
23559900 14 17967816101760211496
23576562 1 15792310317525665519
2916195 48 9007055777374985113
29717793 49 18260547831192042636
3004659 81 18040994063813082297
33382 64 18060419076202010090
33532 11 18272930518301254654
4340502 62 14261353553074134620
465052 167 17989205932943282108
5104073 3 15051150415678042281
5385378 56 11671790351663681220
5470011 282 17531250564781437990
5718773 13 18265893554639026762
5758199 1 11312053261941346820
57634706 306 15285934645007843444
59682541 35 11959721694774395191
59682541 52 13695861481914816928
999808 66 18334020510318220891

> <PUBCHEM_SHAPE_MULTIPOLES>
440.82
24.55
2.01
1.26
12.58
0.65
-0.04
17.17
-4.25
-0.79
-0.23
-0.86
0.04
0.06

> <PUBCHEM_SHAPE_SELFOVERLAP>
897.564

> <PUBCHEM_SHAPE_VOLUME>
257.5

> <PUBCHEM_COORDINATE_TYPE>
2
5
10

$$$$
