131752251
  -OEChem-02172602523D

 96101  0     1  0  0  0  0  0999 V2000
    5.1148   -0.6138   -0.4477 O   0  0  0  0  0  0  0  0  0  0  0  0
   -7.1140   -1.8753   -0.3488 O   0  0  0  0  0  0  0  0  0  0  0  0
    5.5450    1.6561   -0.1116 O   0  0  0  0  0  0  0  0  0  0  0  0
   -5.6544   -0.9281   -1.8214 O   0  0  0  0  0  0  0  0  0  0  0  0
    7.6719   -1.2327    0.6586 O   0  0  0  0  0  0  0  0  0  0  0  0
    9.5810    0.9017    0.3823 O   0  0  0  0  0  0  0  0  0  0  0  0
    8.0216    2.7391   -1.0165 O   0  0  0  0  0  0  0  0  0  0  0  0
   -1.5736   -1.4147    0.2701 C   0  0  2  0  0  0  0  0  0  0  0  0
    0.8025   -0.9703   -0.9622 C   0  0  2  0  0  0  0  0  0  0  0  0
   -0.6802   -0.4768   -0.6315 C   0  0  1  0  0  0  0  0  0  0  0  0
    1.4720   -1.3899    0.3984 C   0  0  2  0  0  0  0  0  0  0  0  0
   -2.8662   -0.5551    0.7926 C   0  0  1  0  0  0  0  0  0  0  0  0
   -0.7406   -1.9493    1.4678 C   0  0  0  0  0  0  0  0  0  0  0  0
    3.0234   -1.6502    0.3619 C   0  0  0  0  0  0  0  0  0  0  0  0
    0.6431   -2.4860    1.0978 C   0  0  0  0  0  0  0  0  0  0  0  0
    1.6057    0.2363   -1.5408 C   0  0  0  0  0  0  0  0  0  0  0  0
   -1.4849   -0.0014   -1.8617 C   0  0  0  0  0  0  0  0  0  0  0  0
   -3.4726    0.3034   -0.3341 C   0  0  0  0  0  0  0  0  0  0  0  0
    3.7115   -0.4108   -0.2842 C   0  0  2  0  0  0  0  0  0  0  0  0
   -3.9649   -1.5139    1.3537 C   0  0  0  0  0  0  0  0  0  0  0  0
    3.1138    0.0070   -1.6239 C   0  0  0  0  0  0  0  0  0  0  0  0
   -2.0542   -2.6533   -0.5441 C   0  0  0  0  0  0  0  0  0  0  0  0
    0.8330   -2.0944   -2.0279 C   0  0  0  0  0  0  0  0  0  0  0  0
   -2.8612    0.4801   -1.5205 C   0  0  0  0  0  0  0  0  0  0  0  0
   -2.4760    0.4330    1.9340 C   0  0  0  0  0  0  0  0  0  0  0  0
   -5.8467   -0.0416    0.4351 C   0  0  1  0  0  0  0  0  0  0  0  0
   -4.7842    0.9312   -0.0649 C   0  0  0  0  0  0  0  0  0  0  0  0
   -5.3104   -0.8413    1.6412 C   0  0  0  0  0  0  0  0  0  0  0  0
    3.4199   -2.9631   -0.3422 C   0  0  0  0  0  0  0  0  0  0  0  0
    3.5697   -1.7653    1.8132 C   0  0  0  0  0  0  0  0  0  0  0  0
   -7.1838    0.6126    0.8470 C   0  0  0  0  0  0  0  0  0  0  0  0
   -5.0209    2.2637   -0.1933 C   0  0  0  0  0  0  0  0  0  0  0  0
   -6.4021    2.8683    0.0419 C   0  0  1  0  0  0  0  0  0  0  0  0
   -7.5156    1.8152   -0.0258 C   0  0  0  0  0  0  0  0  0  0  0  0
   -6.1690   -0.9748   -0.7140 C   0  0  0  0  0  0  0  0  0  0  0  0
    5.8671    0.3324    0.3108 C   0  0  2  0  0  0  0  0  0  0  0  0
   -3.9747    3.2874   -0.5790 C   0  0  0  0  0  0  0  0  0  0  0  0
   -6.4573    3.6317    1.3732 C   0  0  0  0  0  0  0  0  0  0  0  0
    7.3524    0.0359    0.0877 C   0  0  1  0  0  0  0  0  0  0  0  0
    8.2208    1.0994    0.7578 C   0  0  2  0  0  0  0  0  0  0  0  0
    6.2704    2.6615    0.6009 C   0  0  0  0  0  0  0  0  0  0  0  0
    7.7681    2.5061    0.3700 C   0  0  2  0  0  0  0  0  0  0  0  0
   -0.5177    0.4296   -0.0302 H   0  0  0  0  0  0  0  0  0  0  0  0
    1.3743   -0.5029    1.0476 H   0  0  0  0  0  0  0  0  0  0  0  0
   -1.2963   -2.7306    2.0006 H   0  0  0  0  0  0  0  0  0  0  0  0
   -0.5640   -1.1552    2.1992 H   0  0  0  0  0  0  0  0  0  0  0  0
    1.1185   -2.7990    2.0317 H   0  0  0  0  0  0  0  0  0  0  0  0
    0.5551   -3.3899    0.4899 H   0  0  0  0  0  0  0  0  0  0  0  0
    1.4342    1.1245   -0.9184 H   0  0  0  0  0  0  0  0  0  0  0  0
    1.2435    0.4890   -2.5446 H   0  0  0  0  0  0  0  0  0  0  0  0
   -1.5934   -0.7859   -2.6149 H   0  0  0  0  0  0  0  0  0  0  0  0
   -0.9585    0.8302   -2.3426 H   0  0  0  0  0  0  0  0  0  0  0  0
    3.5266    0.4307    0.4014 H   0  0  0  0  0  0  0  0  0  0  0  0
   -3.6087   -2.0026    2.2687 H   0  0  0  0  0  0  0  0  0  0  0  0
   -4.1851   -2.3171    0.6449 H   0  0  0  0  0  0  0  0  0  0  0  0
    3.3664   -0.7276   -2.3958 H   0  0  0  0  0  0  0  0  0  0  0  0
    3.5952    0.9336   -1.9622 H   0  0  0  0  0  0  0  0  0  0  0  0
   -2.8038   -2.3929   -1.2974 H   0  0  0  0  0  0  0  0  0  0  0  0
   -2.4930   -3.4160    0.1091 H   0  0  0  0  0  0  0  0  0  0  0  0
   -1.2470   -3.1647   -1.0617 H   0  0  0  0  0  0  0  0  0  0  0  0
    0.7361   -3.0938   -1.6019 H   0  0  0  0  0  0  0  0  0  0  0  0
    1.7615   -2.1044   -2.6025 H   0  0  0  0  0  0  0  0  0  0  0  0
    0.0520   -1.9804   -2.7817 H   0  0  0  0  0  0  0  0  0  0  0  0
   -3.3558    1.0486   -2.3058 H   0  0  0  0  0  0  0  0  0  0  0  0
   -2.2495   -0.0965    2.8655 H   0  0  0  0  0  0  0  0  0  0  0  0
   -3.2844    1.1301    2.1824 H   0  0  0  0  0  0  0  0  0  0  0  0
   -1.6103    1.0488    1.6732 H   0  0  0  0  0  0  0  0  0  0  0  0
   -5.1960   -0.1784    2.5088 H   0  0  0  0  0  0  0  0  0  0  0  0
   -6.0266   -1.6142    1.9489 H   0  0  0  0  0  0  0  0  0  0  0  0
    2.8462   -3.8144    0.0372 H   0  0  0  0  0  0  0  0  0  0  0  0
    4.4787   -3.1944   -0.1733 H   0  0  0  0  0  0  0  0  0  0  0  0
    3.2923   -2.9210   -1.4236 H   0  0  0  0  0  0  0  0  0  0  0  0
    3.2984   -0.8896    2.4129 H   0  0  0  0  0  0  0  0  0  0  0  0
    3.1902   -2.6549    2.3249 H   0  0  0  0  0  0  0  0  0  0  0  0
    4.6613   -1.8553    1.8278 H   0  0  0  0  0  0  0  0  0  0  0  0
   -7.1290    0.9479    1.8910 H   0  0  0  0  0  0  0  0  0  0  0  0
   -8.0294   -0.0843    0.8213 H   0  0  0  0  0  0  0  0  0  0  0  0
   -6.6054    3.5878   -0.7628 H   0  0  0  0  0  0  0  0  0  0  0  0
   -7.6494    1.4881   -1.0652 H   0  0  0  0  0  0  0  0  0  0  0  0
   -8.4731    2.2490    0.2862 H   0  0  0  0  0  0  0  0  0  0  0  0
    5.6147    0.2153    1.3727 H   0  0  0  0  0  0  0  0  0  0  0  0
   -4.1287    3.6066   -1.6148 H   0  0  0  0  0  0  0  0  0  0  0  0
   -2.9496    2.9233   -0.4757 H   0  0  0  0  0  0  0  0  0  0  0  0
   -4.0354    4.1725    0.0609 H   0  0  0  0  0  0  0  0  0  0  0  0
   -6.1317    3.0118    2.2152 H   0  0  0  0  0  0  0  0  0  0  0  0
   -5.8160    4.5185    1.3511 H   0  0  0  0  0  0  0  0  0  0  0  0
   -7.4750    3.9797    1.5811 H   0  0  0  0  0  0  0  0  0  0  0  0
    7.5811   -0.0323   -0.9823 H   0  0  0  0  0  0  0  0  0  0  0  0
   -7.3370   -2.4891   -1.0807 H   0  0  0  0  0  0  0  0  0  0  0  0
    8.1705    0.9812    1.8475 H   0  0  0  0  0  0  0  0  0  0  0  0
    6.0204    2.6010    1.6663 H   0  0  0  0  0  0  0  0  0  0  0  0
    5.9223    3.6293    0.2256 H   0  0  0  0  0  0  0  0  0  0  0  0
    8.3351    3.2559    0.9321 H   0  0  0  0  0  0  0  0  0  0  0  0
    7.4474   -1.2033    1.6043 H   0  0  0  0  0  0  0  0  0  0  0  0
   10.1075    1.5956    0.8147 H   0  0  0  0  0  0  0  0  0  0  0  0
    7.7462    3.6501   -1.2163 H   0  0  0  0  0  0  0  0  0  0  0  0
  1 19  1  0  0  0  0
  1 36  1  0  0  0  0
  2 35  1  0  0  0  0
  2 89  1  0  0  0  0
  3 36  1  0  0  0  0
  3 41  1  0  0  0  0
  4 35  2  0  0  0  0
  5 39  1  0  0  0  0
  5 94  1  0  0  0  0
  6 40  1  0  0  0  0
  6 95  1  0  0  0  0
  7 42  1  0  0  0  0
  7 96  1  0  0  0  0
  8 10  1  0  0  0  0
  8 12  1  0  0  0  0
  8 13  1  0  0  0  0
  8 22  1  0  0  0  0
  9 10  1  0  0  0  0
  9 11  1  0  0  0  0
  9 16  1  0  0  0  0
  9 23  1  0  0  0  0
 10 17  1  0  0  0  0
 10 43  1  0  0  0  0
 11 14  1  0  0  0  0
 11 15  1  0  0  0  0
 11 44  1  0  0  0  0
 12 18  1  0  0  0  0
 12 20  1  0  0  0  0
 12 25  1  0  0  0  0
 13 15  1  0  0  0  0
 13 45  1  0  0  0  0
 13 46  1  0  0  0  0
 14 19  1  0  0  0  0
 14 29  1  0  0  0  0
 14 30  1  0  0  0  0
 15 47  1  0  0  0  0
 15 48  1  0  0  0  0
 16 21  1  0  0  0  0
 16 49  1  0  0  0  0
 16 50  1  0  0  0  0
 17 24  1  0  0  0  0
 17 51  1  0  0  0  0
 17 52  1  0  0  0  0
 18 24  2  0  0  0  0
 18 27  1  0  0  0  0
 19 21  1  0  0  0  0
 19 53  1  0  0  0  0
 20 28  1  0  0  0  0
 20 54  1  0  0  0  0
 20 55  1  0  0  0  0
 21 56  1  0  0  0  0
 21 57  1  0  0  0  0
 22 58  1  0  0  0  0
 22 59  1  0  0  0  0
 22 60  1  0  0  0  0
 23 61  1  0  0  0  0
 23 62  1  0  0  0  0
 23 63  1  0  0  0  0
 24 64  1  0  0  0  0
 25 65  1  0  0  0  0
 25 66  1  0  0  0  0
 25 67  1  0  0  0  0
 26 27  1  0  0  0  0
 26 28  1  0  0  0  0
 26 31  1  0  0  0  0
 26 35  1  0  0  0  0
 27 32  2  0  0  0  0
 28 68  1  0  0  0  0
 28 69  1  0  0  0  0
 29 70  1  0  0  0  0
 29 71  1  0  0  0  0
 29 72  1  0  0  0  0
 30 73  1  0  0  0  0
 30 74  1  0  0  0  0
 30 75  1  0  0  0  0
 31 34  1  0  0  0  0
 31 76  1  0  0  0  0
 31 77  1  0  0  0  0
 32 33  1  0  0  0  0
 32 37  1  0  0  0  0
 33 34  1  0  0  0  0
 33 38  1  0  0  0  0
 33 78  1  0  0  0  0
 34 79  1  0  0  0  0
 34 80  1  0  0  0  0
 36 39  1  0  0  0  0
 36 81  1  0  0  0  0
 37 82  1  0  0  0  0
 37 83  1  0  0  0  0
 37 84  1  0  0  0  0
 38 85  1  0  0  0  0
 38 86  1  0  0  0  0
 38 87  1  0  0  0  0
 39 40  1  0  0  0  0
 39 88  1  0  0  0  0
 40 42  1  0  0  0  0
 40 90  1  0  0  0  0
 41 42  1  0  0  0  0
 41 91  1  0  0  0  0
 41 92  1  0  0  0  0
 42 93  1  0  0  0  0
M  END
> <PUBCHEM_COMPOUND_CID>
131752251

> <PUBCHEM_CONFORMER_RMSD>
1

> <PUBCHEM_CONFORMER_DIVERSEORDER>
4
3
2
17
22
26
20
21
25
14
7
27
11
1
5
19
15
24
18
8
13
23
6
16
10
9
12

> <PUBCHEM_MMFF94_PARTIAL_CHARGES>
28
1 -0.56
12 0.14
17 0.14
18 -0.14
19 0.28
2 -0.65
24 -0.29
26 0.2
27 -0.14
3 -0.56
32 -0.28
33 0.14
35 0.66
36 0.56
37 0.14
39 0.28
4 -0.57
40 0.28
41 0.28
42 0.28
5 -0.68
6 -0.68
64 0.15
7 -0.68
89 0.5
94 0.4
95 0.4
96 0.4

> <PUBCHEM_EFFECTIVE_ROTOR_COUNT>
6.6

> <PUBCHEM_PHARMACOPHORE_FEATURES>
18
1 1 acceptor
1 2 acceptor
1 3 acceptor
1 4 acceptor
1 5 acceptor
1 5 donor
1 6 acceptor
1 6 donor
1 7 acceptor
1 7 donor
3 14 29 30 hydrophobe
3 2 4 35 anion
6 12 18 20 26 27 28 rings
6 26 27 31 32 33 34 rings
6 3 36 39 40 41 42 rings
6 8 10 12 17 18 24 rings
6 8 9 10 11 13 15 rings
6 9 11 14 16 19 21 rings

> <PUBCHEM_HEAVY_ATOM_COUNT>
42

> <PUBCHEM_ATOM_DEF_STEREO_COUNT>
10

> <PUBCHEM_ATOM_UDEF_STEREO_COUNT>
2

> <PUBCHEM_BOND_DEF_STEREO_COUNT>
0

> <PUBCHEM_BOND_UDEF_STEREO_COUNT>
0

> <PUBCHEM_ISOTOPIC_ATOM_COUNT>
0

> <PUBCHEM_COMPONENT_COUNT>
1

> <PUBCHEM_CACTVS_TAUTO_COUNT>
1

> <PUBCHEM_CONFORMER_ID>
07DA613B00000004

> <PUBCHEM_MMFF94_ENERGY>
166.0308

> <PUBCHEM_FEATURE_SELFOVERLAP>
91.535

> <PUBCHEM_SHAPE_FINGERPRINT>
10 15 18333733546188279874
10076449 9 15051456067543198759
10369192 42 18202561774466086357
10554248 39 16701464455415759620
10625338 131 18410569570616720336
11007060 377 18409736170551177707
11456790 92 18335692850783141768
11991303 11 17060331972409604902
12013929 29 18055921987181376921
12522641 24 17968371248860486394
12539765 74 18272093764647307758
13726171 33 17987244327080141457
13782708 43 11026101078852509641
13811026 1 18341895160402279308
13911987 19 17489868211740605811
14068700 675 8574713515967017750
14294032 229 17988635328735959535
14394314 77 18336548222841793965
14849402 71 18335983146494166556
14856354 85 15769776905695238607
14931854 50 14045744794286064356
15131766 46 18201145650908477164
15289351 153 18335412466485004738
15461852 350 18201721803164261326
15510800 12 11602811368634726568
16728433 281 15552780421857945425
16989713 51 16915926548140797303
16994733 274 18273492368784941232
17686467 74 18339640157376486475
18603816 31 12179851636575202761
20105231 36 13110968656141366319
20511986 3 17968091955541797845
20691028 202 18337951294468147696
21033648 29 18041008323278558946
21130935 74 18186803539046482706
21756936 100 18411978066322862831
23576562 1 15266764650760346808
24771293 8 18260550034710401268
25269216 80 17059761334591272127
2838139 119 18343297098100030252
3103668 31 15194136439777595772
3383291 50 16877947156794663467
3918712 181 18337104541455231913
4093350 32 18271246019886673902
4169191 19 18409163307528036549
4403749 210 18410007741781371783
44802255 64 17561362877299871999
44880168 125 10881693446300826553
44880568 143 17916596327785535117
4616759 239 18040721394030837417
504579 68 13758348956086965297
504843 32 17561080349503072182
5080951 261 17023181682658755259
5104073 3 17967813803883682011
5265222 85 18272932713831656151
54039377 194 7925912591195444232
563151 74 17822010874191640394
6058803 2 16084495719002953366
6201320 82 17844826810005371113
636775 72 18410293605571619753
6691757 9 16732706064548652683
9689198 14 18343866610995523572
9896288 288 12108326141244684455

> <PUBCHEM_SHAPE_MULTIPOLES>
823.26
25.28
3.47
1.63
31.94
1.87
-0.14
19.7
4.31
-0.7
0.41
-0.74
-0.44
-0.51

> <PUBCHEM_SHAPE_SELFOVERLAP>
1760.387

> <PUBCHEM_SHAPE_VOLUME>
447.6

> <PUBCHEM_COORDINATE_TYPE>
2
5
10

$$$$
