12921609
  -OEChem-02172602483D

 80 84  0     1  0  0  0  0  0999 V2000
    0.1610    2.8496    0.8307 Cl  0  0  0  0  0  0  0  0  0  0  0  0
   -1.4494    0.4242    3.3001 Cl  0  0  0  0  0  0  0  0  0  0  0  0
    1.6149   -0.6124    0.2890 P   0  0  0  0  0  0  0  0  0  0  0  0
   -0.2509    1.2817   -0.3580 P   0  0  2  0  0  0  0  0  0  0  0  0
   -0.7584   -0.4921    1.6491 P   0  0  1  0  0  0  0  0  0  0  0  0
    1.4251   -2.1059   -0.3813 N   0  0  0  0  0  0  0  0  0  0  0  0
    3.2224   -0.3647    0.5600 N   0  0  0  0  0  0  0  0  0  0  0  0
    1.0971    0.5006   -0.7431 N   0  0  0  0  0  0  0  0  0  0  0  0
    0.8467   -0.5405    1.6953 N   0  0  0  0  0  0  0  0  0  0  0  0
   -0.9381    1.8257   -1.7571 N   0  0  0  0  0  0  0  0  0  0  0  0
   -1.3342   -2.0389    1.6098 N   0  0  0  0  0  0  0  0  0  0  0  0
   -1.2900    0.2774    0.3425 N   0  0  0  0  0  0  0  0  0  0  0  0
    2.0559   -2.3632   -1.6696 C   0  0  0  0  0  0  0  0  0  0  0  0
    3.6283    0.8968    1.1664 C   0  0  0  0  0  0  0  0  0  0  0  0
    1.4441   -3.5893   -2.3539 C   0  0  0  0  0  0  0  0  0  0  0  0
    1.7420   -1.2518   -2.6758 C   0  0  0  0  0  0  0  0  0  0  0  0
    5.0416    0.8052    1.7499 C   0  0  0  0  0  0  0  0  0  0  0  0
    2.7934    1.2100    2.4117 C   0  0  0  0  0  0  0  0  0  0  0  0
   -2.1859    2.5726   -1.6617 C   0  0  0  0  0  0  0  0  0  0  0  0
   -2.7780   -2.2312    1.5647 C   0  0  0  0  0  0  0  0  0  0  0  0
    1.7594   -3.4024   -3.8393 C   0  0  0  0  0  0  0  0  0  0  0  0
    1.9498   -1.8985   -4.0465 C   0  0  0  0  0  0  0  0  0  0  0  0
    5.1018    1.9177    2.7985 C   0  0  0  0  0  0  0  0  0  0  0  0
    3.6554    2.1789    3.2232 C   0  0  0  0  0  0  0  0  0  0  0  0
   -2.9110    2.6197   -3.0100 C   0  0  0  0  0  0  0  0  0  0  0  0
   -3.2056    1.8439   -0.7812 C   0  0  0  0  0  0  0  0  0  0  0  0
   -3.4216   -1.3638    0.4788 C   0  0  0  0  0  0  0  0  0  0  0  0
   -3.1376   -3.6436    1.0937 C   0  0  0  0  0  0  0  0  0  0  0  0
   -4.3733    2.8952   -2.6547 C   0  0  0  0  0  0  0  0  0  0  0  0
   -4.5631    2.3950   -1.2214 C   0  0  0  0  0  0  0  0  0  0  0  0
   -4.7493   -2.0563    0.1653 C   0  0  0  0  0  0  0  0  0  0  0  0
   -4.5662   -3.5232    0.5597 C   0  0  0  0  0  0  0  0  0  0  0  0
    3.5129   -2.5242   -1.4911 C   0  0  0  0  0  0  0  0  0  0  0  0
    3.5317    1.9847    0.1725 C   0  0  0  0  0  0  0  0  0  0  0  0
   -1.9182    3.9327   -1.1527 C   0  0  0  0  0  0  0  0  0  0  0  0
   -3.3631   -1.9467    2.8904 C   0  0  0  0  0  0  0  0  0  0  0  0
    4.6973   -2.6548   -1.3463 C   0  0  0  0  0  0  0  0  0  0  0  0
    3.4530    2.8687   -0.6357 C   0  0  0  0  0  0  0  0  0  0  0  0
   -1.7008    5.0385   -0.7394 C   0  0  0  0  0  0  0  0  0  0  0  0
   -3.8391   -1.7154    3.9678 C   0  0  0  0  0  0  0  0  0  0  0  0
    1.8286   -4.5428   -1.9749 H   0  0  0  0  0  0  0  0  0  0  0  0
    0.3529   -3.6002   -2.2265 H   0  0  0  0  0  0  0  0  0  0  0  0
    0.6864   -0.9547   -2.6278 H   0  0  0  0  0  0  0  0  0  0  0  0
    2.3813   -0.3666   -2.5932 H   0  0  0  0  0  0  0  0  0  0  0  0
    5.1916   -0.1592    2.2540 H   0  0  0  0  0  0  0  0  0  0  0  0
    5.8347    0.9108    1.0010 H   0  0  0  0  0  0  0  0  0  0  0  0
    1.8127    1.6373    2.2561 H   0  0  0  0  0  0  0  0  0  0  0  0
    2.6823    0.3121    3.0354 H   0  0  0  0  0  0  0  0  0  0  0  0
    1.5497   -2.9131    0.2292 H   0  0  0  0  0  0  0  0  0  0  0  0
    3.8580   -0.5376   -0.2146 H   0  0  0  0  0  0  0  0  0  0  0  0
    0.9560   -3.8001   -4.4677 H   0  0  0  0  0  0  0  0  0  0  0  0
    2.6787   -3.9356   -4.1076 H   0  0  0  0  0  0  0  0  0  0  0  0
    2.9620   -1.6994   -4.4176 H   0  0  0  0  0  0  0  0  0  0  0  0
    1.2478   -1.4985   -4.7856 H   0  0  0  0  0  0  0  0  0  0  0  0
    5.5352    2.8284    2.3690 H   0  0  0  0  0  0  0  0  0  0  0  0
    5.7280    1.6273    3.6482 H   0  0  0  0  0  0  0  0  0  0  0  0
    3.3836    3.2168    2.9974 H   0  0  0  0  0  0  0  0  0  0  0  0
    3.5156    2.0317    4.2991 H   0  0  0  0  0  0  0  0  0  0  0  0
   -2.5123    3.3735   -3.6982 H   0  0  0  0  0  0  0  0  0  0  0  0
   -2.8515    1.6470   -3.5170 H   0  0  0  0  0  0  0  0  0  0  0  0
   -3.2201    0.7829   -1.0418 H   0  0  0  0  0  0  0  0  0  0  0  0
   -3.0720    1.9815    0.2961 H   0  0  0  0  0  0  0  0  0  0  0  0
   -2.8331   -1.3793   -0.4464 H   0  0  0  0  0  0  0  0  0  0  0  0
   -3.6214   -0.3412    0.8071 H   0  0  0  0  0  0  0  0  0  0  0  0
   -3.0615   -4.4029    1.8801 H   0  0  0  0  0  0  0  0  0  0  0  0
   -2.4815   -3.9563    0.2698 H   0  0  0  0  0  0  0  0  0  0  0  0
   -0.3224    2.2739   -2.4353 H   0  0  0  0  0  0  0  0  0  0  0  0
   -0.9193   -2.7084    2.2576 H   0  0  0  0  0  0  0  0  0  0  0  0
   -5.0516    2.3936   -3.3525 H   0  0  0  0  0  0  0  0  0  0  0  0
   -4.5864    3.9692   -2.7068 H   0  0  0  0  0  0  0  0  0  0  0  0
   -4.8684    3.2262   -0.5751 H   0  0  0  0  0  0  0  0  0  0  0  0
   -5.3432    1.6293   -1.1573 H   0  0  0  0  0  0  0  0  0  0  0  0
   -5.5638   -1.6123    0.7497 H   0  0  0  0  0  0  0  0  0  0  0  0
   -5.0131   -1.9489   -0.8920 H   0  0  0  0  0  0  0  0  0  0  0  0
   -4.7296   -4.1949   -0.2892 H   0  0  0  0  0  0  0  0  0  0  0  0
   -5.2913   -3.7945    1.3356 H   0  0  0  0  0  0  0  0  0  0  0  0
    5.7481   -2.7690   -1.2169 H   0  0  0  0  0  0  0  0  0  0  0  0
    3.3798    3.6524   -1.3528 H   0  0  0  0  0  0  0  0  0  0  0  0
   -1.5076    6.0191   -0.3721 H   0  0  0  0  0  0  0  0  0  0  0  0
   -4.2613   -1.5096    4.9235 H   0  0  0  0  0  0  0  0  0  0  0  0
  1  4  1  0  0  0  0
  2  5  1  0  0  0  0
  3  6  1  0  0  0  0
  3  7  1  0  0  0  0
  3  8  1  0  0  0  0
  3  9  2  0  0  0  0
  4  8  2  0  0  0  0
  4 10  1  0  0  0  0
  4 12  1  0  0  0  0
  5  9  1  0  0  0  0
  5 11  1  0  0  0  0
  5 12  2  0  0  0  0
  6 13  1  0  0  0  0
  6 49  1  0  0  0  0
  7 14  1  0  0  0  0
  7 50  1  0  0  0  0
 10 19  1  0  0  0  0
 10 67  1  0  0  0  0
 11 20  1  0  0  0  0
 11 68  1  0  0  0  0
 13 15  1  0  0  0  0
 13 16  1  0  0  0  0
 13 33  1  0  0  0  0
 14 17  1  0  0  0  0
 14 18  1  0  0  0  0
 14 34  1  0  0  0  0
 15 21  1  0  0  0  0
 15 41  1  0  0  0  0
 15 42  1  0  0  0  0
 16 22  1  0  0  0  0
 16 43  1  0  0  0  0
 16 44  1  0  0  0  0
 17 23  1  0  0  0  0
 17 45  1  0  0  0  0
 17 46  1  0  0  0  0
 18 24  1  0  0  0  0
 18 47  1  0  0  0  0
 18 48  1  0  0  0  0
 19 25  1  0  0  0  0
 19 26  1  0  0  0  0
 19 35  1  0  0  0  0
 20 27  1  0  0  0  0
 20 28  1  0  0  0  0
 20 36  1  0  0  0  0
 21 22  1  0  0  0  0
 21 51  1  0  0  0  0
 21 52  1  0  0  0  0
 22 53  1  0  0  0  0
 22 54  1  0  0  0  0
 23 24  1  0  0  0  0
 23 55  1  0  0  0  0
 23 56  1  0  0  0  0
 24 57  1  0  0  0  0
 24 58  1  0  0  0  0
 25 29  1  0  0  0  0
 25 59  1  0  0  0  0
 25 60  1  0  0  0  0
 26 30  1  0  0  0  0
 26 61  1  0  0  0  0
 26 62  1  0  0  0  0
 27 31  1  0  0  0  0
 27 63  1  0  0  0  0
 27 64  1  0  0  0  0
 28 32  1  0  0  0  0
 28 65  1  0  0  0  0
 28 66  1  0  0  0  0
 29 30  1  0  0  0  0
 29 69  1  0  0  0  0
 29 70  1  0  0  0  0
 30 71  1  0  0  0  0
 30 72  1  0  0  0  0
 31 32  1  0  0  0  0
 31 73  1  0  0  0  0
 31 74  1  0  0  0  0
 32 75  1  0  0  0  0
 32 76  1  0  0  0  0
 33 37  3  0  0  0  0
 34 38  3  0  0  0  0
 35 39  3  0  0  0  0
 36 40  3  0  0  0  0
 37 77  1  0  0  0  0
 38 78  1  0  0  0  0
 39 79  1  0  0  0  0
 40 80  1  0  0  0  0
M  END
> <PUBCHEM_COMPOUND_CID>
12921609

> <PUBCHEM_CONFORMER_RMSD>
1.2

> <PUBCHEM_CONFORMER_DIVERSEORDER>
2
285
174
191
71
179
171
282
39
137
261
256
276
246
189
87
130
238
141
259
260
200
277
133
278
135
219
129
270
140
73
294
234
232
300
233
250
104
247
207
258
254
24
74
70
134
123
202
253
125
263
108
150
21
190
99
155
237
84
248
173
210
286
121
139
228
211
107
295
195
224
175
27
268
164
81
30
161
192
212
264
266
165
293
151
287
166
89
301
252
279
154
203
168
116
275
95
245
181
269
198
67
45
280
145
146
63
304
239
172
48
83
288
42
96
112
221
102
52
159
296
273
126
213
56
226
163
124
148
93
206
267
77
136
147
185
183
75
274
231
53
44
59
292
54
291
283
284
117
215
193
16
10
88
101
265
272
120
262
289
196
156
220
167
162
90
60
208
157
188
186
62
204
40
257
115
214
92
97
217
64
187
110
216
32
38
222
242
303
76
113
182
15
57
209
169
152
106
218
132
49
251
100
43
176
178
281
184
50
223
142
33
118
249
9
255
6
143
66
180
227
98
78
34
158
128
205
298
68
149
3
240
119
236
153
14
29
36
170
225
35
302
91
7
23
144
199
194
243
230
131
271
244
19
160
241
138
122
114
79
12
201
13
105
65
229
290
72
177
55
109
8
235
25
58
31
37
94
80
82
61
85
51
297
17
299
305
197
127
69
18
111
47
20
86
103
4
28
26
22
41
11
5
1
46

> <PUBCHEM_MMFF94_PARTIAL_CHARGES>
32
1 -0.32
10 -0.9
11 -0.9
12 -0.64
13 0.47
14 0.47
19 0.47
2 -0.32
20 0.47
3 1.17
33 -0.2
34 -0.2
35 -0.2
36 -0.2
37 -0.18
38 -0.18
39 -0.18
4 1.22
40 -0.18
49 0.36
5 1.22
50 0.36
6 -0.9
67 0.36
68 0.36
7 -0.9
77 0.18
78 0.18
79 0.18
8 -0.64
80 0.18
9 -0.64

> <PUBCHEM_EFFECTIVE_ROTOR_COUNT>
12

> <PUBCHEM_PHARMACOPHORE_FEATURES>
9
1 37 hydrophobe
1 38 hydrophobe
1 39 hydrophobe
1 40 hydrophobe
5 13 15 16 21 22 rings
5 14 17 18 23 24 rings
5 19 25 26 29 30 rings
5 20 27 28 31 32 rings
6 3 4 5 8 9 12 rings

> <PUBCHEM_HEAVY_ATOM_COUNT>
40

> <PUBCHEM_ATOM_DEF_STEREO_COUNT>
0

> <PUBCHEM_ATOM_UDEF_STEREO_COUNT>
2

> <PUBCHEM_BOND_DEF_STEREO_COUNT>
0

> <PUBCHEM_BOND_UDEF_STEREO_COUNT>
0

> <PUBCHEM_ISOTOPIC_ATOM_COUNT>
0

> <PUBCHEM_COMPONENT_COUNT>
1

> <PUBCHEM_CACTVS_TAUTO_COUNT>
10

> <PUBCHEM_CONFORMER_ID>
00C52B0900000002

> <PUBCHEM_MMFF94_ENERGY>
63.5105

> <PUBCHEM_FEATURE_SELFOVERLAP>
45.676

> <PUBCHEM_SHAPE_FINGERPRINT>
10006869 2 17827909943164346076
10010297 198 16343160055399609615
11227688 84 16984642476996836534
11285246 1 17190954752400043828
11434127 23 18120622839064611636
11578080 2 18269014036350205953
11763715 3 16951422081371189560
12058002 1 18339921494224251448
12156800 1 17894908507823906862
12160290 23 17750531602269845713
12422481 6 18340207521643899018
12633046 712 17699032616075406942
12788726 201 17604705711054931696
12977781 61 18339633452110221814
13583140 156 17130451041263528585
15297060 5 17465111448794493277
15324884 4 18342167887095201092
15484559 13 15592204970134146507
15775530 1 18341621365106623176
16114785 44 17689673813844650504
161222 10 17896311412147548653
17909252 39 17700679675956933764
20775438 99 18123438662942411223
21716022 299 16400081858432495119
24941158 1 17703237212858738214
25223398 141 17679876907553417483
255183 313 17699270373022837256
26353 1 17755905035832818335
3493558 16 15793409897846421564
376196 1 17908665524613330768
4015057 19 17770779014021036030
469060 322 17912341415211723695
46939830 39 17400605691437335927
550186 7 18263905748588272840
563151 74 17561367301052837353

> <PUBCHEM_SHAPE_MULTIPOLES>
803.6
9.57
5.96
4.56
0.95
1.11
-0.05
-0.35
3.08
-2.87
-3.72
-0.02
-1.41
8.89

> <PUBCHEM_SHAPE_SELFOVERLAP>
1632.49

> <PUBCHEM_SHAPE_VOLUME>
468.9

> <PUBCHEM_COORDINATE_TYPE>
2
5
10

$$$$
