6432447
  -OEChem-02172602593D

 42 44  0     1  0  0  0  0  0999 V2000
   -0.2985    1.1961   -1.8613 O   0  0  0  0  0  0  0  0  0  0  0  0
    1.1223   -0.8626    0.0601 C   0  0  1  0  0  0  0  0  0  0  0  0
    1.5912    0.5624   -0.3867 C   0  0  1  0  0  0  0  0  0  0  0  0
    0.3153   -0.2704    1.2428 C   0  0  2  0  0  0  0  0  0  0  0  0
   -0.6510    0.7570    0.5731 C   0  0  1  0  0  0  0  0  0  0  0  0
    0.2453    1.3391   -0.5657 C   0  0  2  0  0  0  0  0  0  0  0  0
    2.2443    1.1363    0.9026 C   0  0  0  0  0  0  0  0  0  0  0  0
    1.3688    0.5581    2.0203 C   0  0  0  0  0  0  0  0  0  0  0  0
   -2.0780    0.2284    0.2389 C   0  0  0  0  0  0  0  0  0  0  0  0
    0.3029   -1.6483   -1.0035 C   0  0  0  0  0  0  0  0  0  0  0  0
    2.2663   -1.8028    0.5095 C   0  0  0  0  0  0  0  0  0  0  0  0
    2.5362    0.6272   -1.5757 C   0  0  0  0  0  0  0  0  0  0  0  0
   -2.1321   -0.9149   -0.7992 C   0  0  0  0  0  0  0  0  0  0  0  0
   -1.1213   -2.0438   -0.6183 C   0  0  0  0  0  0  0  0  0  0  0  0
   -2.9507    1.3982   -0.2810 C   0  0  0  0  0  0  0  0  0  0  0  0
   -2.7611   -0.2601    1.5440 C   0  0  0  0  0  0  0  0  0  0  0  0
   -0.1595   -1.0034    1.8956 H   0  0  0  0  0  0  0  0  0  0  0  0
   -0.8062    1.5730    1.2954 H   0  0  0  0  0  0  0  0  0  0  0  0
    0.3870    2.4147   -0.4041 H   0  0  0  0  0  0  0  0  0  0  0  0
    2.2444    2.2319    0.9173 H   0  0  0  0  0  0  0  0  0  0  0  0
    3.2851    0.8150    1.0200 H   0  0  0  0  0  0  0  0  0  0  0  0
    1.9584   -0.0741    2.6925 H   0  0  0  0  0  0  0  0  0  0  0  0
    0.9201    1.3444    2.6363 H   0  0  0  0  0  0  0  0  0  0  0  0
    0.8250   -2.5886   -1.2309 H   0  0  0  0  0  0  0  0  0  0  0  0
    0.2936   -1.1350   -1.9696 H   0  0  0  0  0  0  0  0  0  0  0  0
    2.9577   -1.3717    1.2359 H   0  0  0  0  0  0  0  0  0  0  0  0
    1.8516   -2.7080    0.9685 H   0  0  0  0  0  0  0  0  0  0  0  0
    2.8751   -2.1101   -0.3489 H   0  0  0  0  0  0  0  0  0  0  0  0
    2.7784    1.6674   -1.8194 H   0  0  0  0  0  0  0  0  0  0  0  0
    3.4783    0.1112   -1.3627 H   0  0  0  0  0  0  0  0  0  0  0  0
    2.1072    0.1670   -2.4705 H   0  0  0  0  0  0  0  0  0  0  0  0
   -2.0343   -0.5175   -1.8165 H   0  0  0  0  0  0  0  0  0  0  0  0
   -3.1365   -1.3610   -0.7758 H   0  0  0  0  0  0  0  0  0  0  0  0
   -1.4264   -2.8557   -1.2922 H   0  0  0  0  0  0  0  0  0  0  0  0
   -1.1586   -2.4706    0.3888 H   0  0  0  0  0  0  0  0  0  0  0  0
   -3.9846    1.0737   -0.4488 H   0  0  0  0  0  0  0  0  0  0  0  0
   -2.9779    2.2221    0.4415 H   0  0  0  0  0  0  0  0  0  0  0  0
   -2.5859    1.8026   -1.2289 H   0  0  0  0  0  0  0  0  0  0  0  0
   -3.8187   -0.4935    1.3722 H   0  0  0  0  0  0  0  0  0  0  0  0
   -2.3012   -1.1666    1.9460 H   0  0  0  0  0  0  0  0  0  0  0  0
   -2.7201    0.5098    2.3231 H   0  0  0  0  0  0  0  0  0  0  0  0
    0.2828    1.6668   -2.4818 H   0  0  0  0  0  0  0  0  0  0  0  0
  1  6  1  0  0  0  0
  1 42  1  0  0  0  0
  2  3  1  0  0  0  0
  2  4  1  0  0  0  0
  2 10  1  0  0  0  0
  2 11  1  0  0  0  0
  3  6  1  0  0  0  0
  3  7  1  0  0  0  0
  3 12  1  0  0  0  0
  4  5  1  0  0  0  0
  4  8  1  0  0  0  0
  4 17  1  0  0  0  0
  5  6  1  0  0  0  0
  5  9  1  0  0  0  0
  5 18  1  0  0  0  0
  6 19  1  0  0  0  0
  7  8  1  0  0  0  0
  7 20  1  0  0  0  0
  7 21  1  0  0  0  0
  8 22  1  0  0  0  0
  8 23  1  0  0  0  0
  9 13  1  0  0  0  0
  9 15  1  0  0  0  0
  9 16  1  0  0  0  0
 10 14  1  0  0  0  0
 10 24  1  0  0  0  0
 10 25  1  0  0  0  0
 11 26  1  0  0  0  0
 11 27  1  0  0  0  0
 11 28  1  0  0  0  0
 12 29  1  0  0  0  0
 12 30  1  0  0  0  0
 12 31  1  0  0  0  0
 13 14  1  0  0  0  0
 13 32  1  0  0  0  0
 13 33  1  0  0  0  0
 14 34  1  0  0  0  0
 14 35  1  0  0  0  0
 15 36  1  0  0  0  0
 15 37  1  0  0  0  0
 15 38  1  0  0  0  0
 16 39  1  0  0  0  0
 16 40  1  0  0  0  0
 16 41  1  0  0  0  0
M  END
> <PUBCHEM_COMPOUND_CID>
6432447

> <PUBCHEM_CONFORMER_RMSD>
0.6

> <PUBCHEM_CONFORMER_DIVERSEORDER>
1
5
4
3
2

> <PUBCHEM_MMFF94_PARTIAL_CHARGES>
3
1 -0.68
42 0.4
6 0.28

> <PUBCHEM_EFFECTIVE_ROTOR_COUNT>
1.4

> <PUBCHEM_PHARMACOPHORE_FEATURES>
5
1 1 acceptor
1 1 donor
3 9 15 16 hydrophobe
7 2 3 4 5 6 7 8 rings
7 2 4 5 9 10 13 14 rings

> <PUBCHEM_HEAVY_ATOM_COUNT>
16

> <PUBCHEM_ATOM_DEF_STEREO_COUNT>
1

> <PUBCHEM_ATOM_UDEF_STEREO_COUNT>
4

> <PUBCHEM_BOND_DEF_STEREO_COUNT>
0

> <PUBCHEM_BOND_UDEF_STEREO_COUNT>
0

> <PUBCHEM_ISOTOPIC_ATOM_COUNT>
0

> <PUBCHEM_COMPONENT_COUNT>
1

> <PUBCHEM_CACTVS_TAUTO_COUNT>
1

> <PUBCHEM_CONFORMER_ID>
006226BF00000001

> <PUBCHEM_MMFF94_ENERGY>
92.0501

> <PUBCHEM_FEATURE_SELFOVERLAP>
25.579

> <PUBCHEM_SHAPE_FINGERPRINT>
10863032 1 17750536025447603743
10948715 1 17822876258456473556
12138202 97 17631163276607534948
12326174 3 17023175050722132986
12423570 1 18048322145682397758
12491281 212 18125172777215106584
12808571 1 17970088809379014095
13024252 1 15579723996507705096
13027679 85 17480569452477959466
13172582 1 18261668263694798457
13839132 238 17559392659235809168
144361 1 18261398788730079772
14817 1 17025983031330676495
15775835 57 18273497887997212419
15881359 60 17755261692359413645
16945 1 18263364857286067057
20511035 2 18263916640472263783
22344851 341 18058734752989486226
23419403 2 16967975997531382003
23493267 7 17895487929182578065
23559900 14 17703523155688197852
2748010 2 17917144021798498771
5084963 1 18335411323063874043
528886 8 18261408779024379454
5337951 7 17203061745706127336
81228 2 17697877325844734895

> <PUBCHEM_SHAPE_MULTIPOLES>
323.4
3.76
1.87
1.68
1.3
0.85
-0.04
-0.54
0.15
-0.03
-0.07
-0.39
-0.41
-0.02

> <PUBCHEM_SHAPE_SELFOVERLAP>
688.641

> <PUBCHEM_SHAPE_VOLUME>
184.8

> <PUBCHEM_COORDINATE_TYPE>
2
5
10

$$$$
