5280898
  -OEChem-02172602383D

 93 99  0     1  0  0  0  0  0999 V2000
   -1.5663   -1.4775    0.2870 O   0  0  0  0  0  0  0  0  0  0  0  0
    2.3203   -2.5614    0.9809 O   0  0  0  0  0  0  0  0  0  0  0  0
    3.5437    2.5333   -0.2174 O   0  0  0  0  0  0  0  0  0  0  0  0
   -3.1837    0.9163   -0.9626 O   0  0  0  0  0  0  0  0  0  0  0  0
   -1.9765    3.7178   -0.8600 O   0  0  0  0  0  0  0  0  0  0  0  0
   -0.8216    0.4890    2.6099 O   0  0  0  0  0  0  0  0  0  0  0  0
   -2.5905    2.7404    1.4859 O   0  0  0  0  0  0  0  0  0  0  0  0
    6.1104    0.5864   -0.9771 O   0  0  0  0  0  0  0  0  0  0  0  0
    4.3384   -2.8568   -1.5680 O   0  0  0  0  0  0  0  0  0  0  0  0
   -1.0897   -1.7789    2.5272 O   0  0  0  0  0  0  0  0  0  0  0  0
   -3.2054   -0.7528   -2.5479 O   0  0  0  0  0  0  0  0  0  0  0  0
    2.7863    0.1849    1.5575 N   0  0  1  0  0  0  0  0  0  0  0  0
    1.9672    0.6799   -0.8244 C   0  0  1  0  0  0  0  0  0  0  0  0
    2.5934   -0.8319   -0.9685 C   0  0  2  0  0  0  0  0  0  0  0  0
    0.5317    1.0904   -1.5124 C   0  0  1  0  0  0  0  0  0  0  0  0
    1.6561    0.5247    0.6687 C   0  0  1  0  0  0  0  0  0  0  0  0
    0.7092   -0.7401    0.5213 C   0  0  1  0  0  0  0  0  0  0  0  0
   -0.8090    0.3098   -1.1974 C   0  0  1  0  0  0  0  0  0  0  0  0
   -0.7637   -0.2848    0.2753 C   0  0  1  0  0  0  0  0  0  0  0  0
    1.6918   -1.7974   -0.0176 C   0  0  2  0  0  0  0  0  0  0  0  0
    4.0734   -0.7429   -0.4869 C   0  0  2  0  0  0  0  0  0  0  0  0
    2.9774    1.7843   -1.2827 C   0  0  2  0  0  0  0  0  0  0  0  0
    0.1027    2.5466   -1.1285 C   0  0  0  0  0  0  0  0  0  0  0  0
   -1.3385    2.4820   -0.5734 C   0  0  2  0  0  0  0  0  0  0  0  0
   -1.9120    1.3460   -1.4013 C   0  0  2  0  0  0  0  0  0  0  0  0
   -1.3895    0.6740    1.3127 C   0  0  2  0  0  0  0  0  0  0  0  0
    4.0996   -0.0898    0.9460 C   0  0  0  0  0  0  0  0  0  0  0  0
    4.8831    0.1045   -1.5220 C   0  0  1  0  0  0  0  0  0  0  0  0
   -1.3803    2.1788    0.9480 C   0  0  2  0  0  0  0  0  0  0  0  0
    4.0918    1.2365   -2.1650 C   0  0  0  0  0  0  0  0  0  0  0  0
    4.7823   -2.1199   -0.4525 C   0  0  0  0  0  0  0  0  0  0  0  0
    2.8785    1.0280    2.7401 C   0  0  0  0  0  0  0  0  0  0  0  0
   -1.6350   -2.1177    1.4856 C   0  0  0  0  0  0  0  0  0  0  0  0
    1.4792   -3.6066    1.4670 C   0  0  0  0  0  0  0  0  0  0  0  0
    3.7353    0.3773    3.8128 C   0  0  0  0  0  0  0  0  0  0  0  0
    3.9133    3.8407   -0.6361 C   0  0  0  0  0  0  0  0  0  0  0  0
   -3.7257   -0.1500   -1.6221 C   0  0  0  0  0  0  0  0  0  0  0  0
   -2.4554    2.9975    2.8707 C   0  0  0  0  0  0  0  0  0  0  0  0
   -2.4998   -3.3341    1.3481 C   0  0  0  0  0  0  0  0  0  0  0  0
    4.9373   -4.1493   -1.6274 C   0  0  0  0  0  0  0  0  0  0  0  0
   -5.0582   -0.5001   -1.0688 C   0  0  0  0  0  0  0  0  0  0  0  0
   -5.7798   -1.5648   -1.6090 C   0  0  0  0  0  0  0  0  0  0  0  0
   -5.5885    0.2351   -0.0086 C   0  0  0  0  0  0  0  0  0  0  0  0
   -7.0316   -1.8941   -1.0891 C   0  0  0  0  0  0  0  0  0  0  0  0
   -6.8404   -0.0944    0.5113 C   0  0  0  0  0  0  0  0  0  0  0  0
   -7.5618   -1.1589   -0.0290 C   0  0  0  0  0  0  0  0  0  0  0  0
    2.5039   -1.1539   -2.0130 H   0  0  0  0  0  0  0  0  0  0  0  0
    0.6827    1.0517   -2.6005 H   0  0  0  0  0  0  0  0  0  0  0  0
    1.1430    1.3984    1.0625 H   0  0  0  0  0  0  0  0  0  0  0  0
    0.6608   -1.0567    1.5648 H   0  0  0  0  0  0  0  0  0  0  0  0
   -0.8936   -0.5263   -1.9002 H   0  0  0  0  0  0  0  0  0  0  0  0
    1.1513   -2.4605   -0.7057 H   0  0  0  0  0  0  0  0  0  0  0  0
    2.4476    2.4873   -1.9363 H   0  0  0  0  0  0  0  0  0  0  0  0
    0.1355    3.1692   -2.0333 H   0  0  0  0  0  0  0  0  0  0  0  0
    0.7691    3.0374   -0.4127 H   0  0  0  0  0  0  0  0  0  0  0  0
   -1.9929    1.6454   -2.4558 H   0  0  0  0  0  0  0  0  0  0  0  0
   -2.4484    0.3990    1.4302 H   0  0  0  0  0  0  0  0  0  0  0  0
    4.6993    0.8255    0.9384 H   0  0  0  0  0  0  0  0  0  0  0  0
    4.6443   -0.7688    1.6131 H   0  0  0  0  0  0  0  0  0  0  0  0
    5.1850   -0.5488   -2.3522 H   0  0  0  0  0  0  0  0  0  0  0  0
   -0.5382    2.6971    1.4226 H   0  0  0  0  0  0  0  0  0  0  0  0
    4.7730    2.0259   -2.4969 H   0  0  0  0  0  0  0  0  0  0  0  0
    3.6187    0.8436   -3.0759 H   0  0  0  0  0  0  0  0  0  0  0  0
    5.8732   -2.0019   -0.4869 H   0  0  0  0  0  0  0  0  0  0  0  0
    4.5650   -2.6780    0.4627 H   0  0  0  0  0  0  0  0  0  0  0  0
    1.8805    1.1684    3.1732 H   0  0  0  0  0  0  0  0  0  0  0  0
    3.2649    2.0244    2.4968 H   0  0  0  0  0  0  0  0  0  0  0  0
   -1.9974    3.8391   -1.8243 H   0  0  0  0  0  0  0  0  0  0  0  0
   -1.4643    0.0052    3.1553 H   0  0  0  0  0  0  0  0  0  0  0  0
    6.5985    1.0302   -1.6914 H   0  0  0  0  0  0  0  0  0  0  0  0
    0.8471   -3.2369    2.2733 H   0  0  0  0  0  0  0  0  0  0  0  0
    0.8811   -4.0702    0.6768 H   0  0  0  0  0  0  0  0  0  0  0  0
    2.1280   -4.3764    1.8954 H   0  0  0  0  0  0  0  0  0  0  0  0
    3.6477    0.9419    4.7476 H   0  0  0  0  0  0  0  0  0  0  0  0
    4.7966    0.3658    3.5457 H   0  0  0  0  0  0  0  0  0  0  0  0
    3.4126   -0.6494    4.0170 H   0  0  0  0  0  0  0  0  0  0  0  0
    3.0476    4.3905   -1.0188 H   0  0  0  0  0  0  0  0  0  0  0  0
    4.2879    4.3764    0.2411 H   0  0  0  0  0  0  0  0  0  0  0  0
    4.7137    3.8226   -1.3791 H   0  0  0  0  0  0  0  0  0  0  0  0
   -3.3102    3.6076    3.1786 H   0  0  0  0  0  0  0  0  0  0  0  0
   -1.5472    3.5642    3.0995 H   0  0  0  0  0  0  0  0  0  0  0  0
   -2.4957    2.0763    3.4556 H   0  0  0  0  0  0  0  0  0  0  0  0
   -3.5121   -3.0382    1.0613 H   0  0  0  0  0  0  0  0  0  0  0  0
   -2.0707   -4.0116    0.6055 H   0  0  0  0  0  0  0  0  0  0  0  0
   -2.5469   -3.8553    2.3085 H   0  0  0  0  0  0  0  0  0  0  0  0
    6.0248   -4.0626   -1.7121 H   0  0  0  0  0  0  0  0  0  0  0  0
    4.5559   -4.6631   -2.5137 H   0  0  0  0  0  0  0  0  0  0  0  0
    4.6711   -4.7337   -0.7413 H   0  0  0  0  0  0  0  0  0  0  0  0
   -5.3840   -2.1503   -2.4345 H   0  0  0  0  0  0  0  0  0  0  0  0
   -5.0602    1.0702    0.4423 H   0  0  0  0  0  0  0  0  0  0  0  0
   -7.5934   -2.7232   -1.5094 H   0  0  0  0  0  0  0  0  0  0  0  0
   -7.2535    0.4774    1.3371 H   0  0  0  0  0  0  0  0  0  0  0  0
   -8.5363   -1.4154    0.3759 H   0  0  0  0  0  0  0  0  0  0  0  0
  1 19  1  0  0  0  0
  1 33  1  0  0  0  0
  2 20  1  0  0  0  0
  2 34  1  0  0  0  0
  3 22  1  0  0  0  0
  3 36  1  0  0  0  0
  4 25  1  0  0  0  0
  4 37  1  0  0  0  0
  5 24  1  0  0  0  0
  5 68  1  0  0  0  0
  6 26  1  0  0  0  0
  6 69  1  0  0  0  0
  7 29  1  0  0  0  0
  7 38  1  0  0  0  0
  8 28  1  0  0  0  0
  8 70  1  0  0  0  0
  9 31  1  0  0  0  0
  9 40  1  0  0  0  0
 10 33  2  0  0  0  0
 11 37  2  0  0  0  0
 12 16  1  0  0  0  0
 12 27  1  0  0  0  0
 12 32  1  0  0  0  0
 13 14  1  0  0  0  0
 13 15  1  0  0  0  0
 13 16  1  0  0  0  0
 13 22  1  0  0  0  0
 14 20  1  0  0  0  0
 14 21  1  0  0  0  0
 14 47  1  0  0  0  0
 15 18  1  0  0  0  0
 15 23  1  0  0  0  0
 15 48  1  0  0  0  0
 16 17  1  0  0  0  0
 16 49  1  0  0  0  0
 17 19  1  0  0  0  0
 17 20  1  0  0  0  0
 17 50  1  0  0  0  0
 18 19  1  0  0  0  0
 18 25  1  0  0  0  0
 18 51  1  0  0  0  0
 19 26  1  0  0  0  0
 20 52  1  0  0  0  0
 21 27  1  0  0  0  0
 21 28  1  0  0  0  0
 21 31  1  0  0  0  0
 22 30  1  0  0  0  0
 22 53  1  0  0  0  0
 23 24  1  0  0  0  0
 23 54  1  0  0  0  0
 23 55  1  0  0  0  0
 24 25  1  0  0  0  0
 24 29  1  0  0  0  0
 25 56  1  0  0  0  0
 26 29  1  0  0  0  0
 26 57  1  0  0  0  0
 27 58  1  0  0  0  0
 27 59  1  0  0  0  0
 28 30  1  0  0  0  0
 28 60  1  0  0  0  0
 29 61  1  0  0  0  0
 30 62  1  0  0  0  0
 30 63  1  0  0  0  0
 31 64  1  0  0  0  0
 31 65  1  0  0  0  0
 32 35  1  0  0  0  0
 32 66  1  0  0  0  0
 32 67  1  0  0  0  0
 33 39  1  0  0  0  0
 34 71  1  0  0  0  0
 34 72  1  0  0  0  0
 34 73  1  0  0  0  0
 35 74  1  0  0  0  0
 35 75  1  0  0  0  0
 35 76  1  0  0  0  0
 36 77  1  0  0  0  0
 36 78  1  0  0  0  0
 36 79  1  0  0  0  0
 37 41  1  0  0  0  0
 38 80  1  0  0  0  0
 38 81  1  0  0  0  0
 38 82  1  0  0  0  0
 39 83  1  0  0  0  0
 39 84  1  0  0  0  0
 39 85  1  0  0  0  0
 40 86  1  0  0  0  0
 40 87  1  0  0  0  0
 40 88  1  0  0  0  0
 41 42  2  0  0  0  0
 41 43  1  0  0  0  0
 42 44  1  0  0  0  0
 42 89  1  0  0  0  0
 43 45  2  0  0  0  0
 43 90  1  0  0  0  0
 44 46  2  0  0  0  0
 44 91  1  0  0  0  0
 45 46  1  0  0  0  0
 45 92  1  0  0  0  0
 46 93  1  0  0  0  0
M  END
> <PUBCHEM_COMPOUND_CID>
5280898

> <PUBCHEM_CONFORMER_RMSD>
1.2

> <PUBCHEM_CONFORMER_DIVERSEORDER>
1
2

> <PUBCHEM_MMFF94_PARTIAL_CHARGES>
45
1 -0.43
10 -0.57
11 -0.57
12 -0.81
16 0.27
19 0.28
2 -0.56
20 0.28
22 0.28
24 0.28
25 0.28
26 0.28
27 0.27
28 0.28
29 0.28
3 -0.56
31 0.28
32 0.27
33 0.66
34 0.28
36 0.28
37 0.63
38 0.28
39 0.06
4 -0.43
40 0.28
41 0.09
42 -0.15
43 -0.15
44 -0.15
45 -0.15
46 -0.15
5 -0.68
6 -0.68
68 0.4
69 0.4
7 -0.56
70 0.4
8 -0.68
89 0.15
9 -0.56
90 0.15
91 0.15
92 0.15
93 0.15

> <PUBCHEM_EFFECTIVE_ROTOR_COUNT>
13

> <PUBCHEM_PHARMACOPHORE_FEATURES>
18
1 10 acceptor
1 11 acceptor
1 12 cation
1 2 acceptor
1 3 acceptor
1 5 acceptor
1 5 donor
1 6 acceptor
1 6 donor
1 7 acceptor
1 8 acceptor
1 8 donor
1 9 acceptor
6 13 14 21 22 28 30 rings
6 41 42 43 44 45 46 rings
8 12 13 14 16 17 20 21 27 rings
8 13 14 15 16 17 18 19 20 rings
8 15 18 19 23 24 25 26 29 rings

> <PUBCHEM_HEAVY_ATOM_COUNT>
46

> <PUBCHEM_ATOM_DEF_STEREO_COUNT>
14

> <PUBCHEM_ATOM_UDEF_STEREO_COUNT>
1

> <PUBCHEM_BOND_DEF_STEREO_COUNT>
0

> <PUBCHEM_BOND_UDEF_STEREO_COUNT>
0

> <PUBCHEM_ISOTOPIC_ATOM_COUNT>
0

> <PUBCHEM_COMPONENT_COUNT>
1

> <PUBCHEM_CACTVS_TAUTO_COUNT>
1

> <PUBCHEM_CONFORMER_ID>
0050948200000001

> <PUBCHEM_MMFF94_ENERGY>
295.5452

> <PUBCHEM_FEATURE_SELFOVERLAP>
92.565

> <PUBCHEM_SHAPE_FINGERPRINT>
10190108 129 18265350417295200699
11421498 54 18413387619134474291
11578080 2 17910674598802895201
12788726 201 18187077347917642741
13782708 43 18129662989229137623
13811026 1 18114172021470863022
14068700 675 18411416185309661805
15219462 58 18060706095622895162
17349148 13 18041265595803112073
17909252 39 18201431446031905135
18603816 31 17410505286291668302
19311894 1 17834679292690198108
20775438 99 18191573349505598759
23559900 14 18262801886206176972
25223398 141 17845936217326947321
469060 322 18188208702760200449
563151 248 17842018597625673291
57527293 21 16056582288453777861
57527295 17 17986971669570970918
6669772 16 16951674981999577249
70251023 43 18340489971773345206

> <PUBCHEM_SHAPE_MULTIPOLES>
877.11
13.59
4.11
2.74
16.48
0.6
2.04
6
-5.08
-2.58
0.11
-1.26
-0.37
-0.27

> <PUBCHEM_SHAPE_SELFOVERLAP>
1909.977

> <PUBCHEM_SHAPE_VOLUME>
466.6

> <PUBCHEM_COORDINATE_TYPE>
2
5
10

$$$$
