10091395
  -OEChem-02172602483D

 49 52  0     0  0  0  0  0  0999 V2000
    2.8605    4.9714    1.2336 Cl  0  0  0  0  0  0  0  0  0  0  0  0
   -3.0944    0.0635   -0.6721 O   0  0  0  0  0  0  0  0  0  0  0  0
    3.8992   -0.4637   -0.7658 O   0  0  0  0  0  0  0  0  0  0  0  0
   -0.2031   -1.2221   -0.9223 N   0  0  0  0  0  0  0  0  0  0  0  0
   -0.0566    0.9875   -1.0716 N   0  0  0  0  0  0  0  0  0  0  0  0
   -7.6499    0.3324    0.9465 N   0  0  0  0  0  0  0  0  0  0  0  0
    1.0611   -0.9100   -0.4820 C   0  0  0  0  0  0  0  0  0  0  0  0
    1.1226    0.4683   -0.5924 C   0  0  0  0  0  0  0  0  0  0  0  0
    2.0503   -1.8628    0.0034 C   0  0  0  0  0  0  0  0  0  0  0  0
   -0.8281   -0.0568   -1.2676 C   0  0  0  0  0  0  0  0  0  0  0  0
    2.2620    1.2679   -0.1907 C   0  0  0  0  0  0  0  0  0  0  0  0
   -5.3441    0.1788    0.1373 C   0  0  0  0  0  0  0  0  0  0  0  0
   -2.2086   -0.0513   -1.7856 C   0  0  0  0  0  0  0  0  0  0  0  0
    3.4203   -1.5743   -0.1036 C   0  0  0  0  0  0  0  0  0  0  0  0
   -6.8200    0.2125   -0.2460 C   0  0  0  0  0  0  0  0  0  0  0  0
    3.5730    0.7656   -0.2332 C   0  0  0  0  0  0  0  0  0  0  0  0
   -4.4500    0.0758   -1.0911 C   0  0  0  0  0  0  0  0  0  0  0  0
    1.6642   -3.0701    0.6033 C   0  0  0  0  0  0  0  0  0  0  0  0
    2.0561    2.5780    0.2658 C   0  0  0  0  0  0  0  0  0  0  0  0
    4.3803   -2.4832    0.3532 C   0  0  0  0  0  0  0  0  0  0  0  0
    4.6527    1.5668    0.1555 C   0  0  0  0  0  0  0  0  0  0  0  0
    2.6241   -3.9683    1.0768 C   0  0  0  0  0  0  0  0  0  0  0  0
    3.1346    3.3677    0.6708 C   0  0  0  0  0  0  0  0  0  0  0  0
    3.9800   -3.6753    0.9515 C   0  0  0  0  0  0  0  0  0  0  0  0
    4.4312    2.8626    0.6163 C   0  0  0  0  0  0  0  0  0  0  0  0
   -7.4553   -0.8201    1.8282 C   0  0  0  0  0  0  0  0  0  0  0  0
   -9.0620    0.4593    0.5817 C   0  0  0  0  0  0  0  0  0  0  0  0
   -0.6006   -2.1502   -0.9836 H   0  0  0  0  0  0  0  0  0  0  0  0
   -5.0724    1.0743    0.7111 H   0  0  0  0  0  0  0  0  0  0  0  0
   -5.0996   -0.6780    0.7748 H   0  0  0  0  0  0  0  0  0  0  0  0
   -2.4226   -0.9725   -2.3401 H   0  0  0  0  0  0  0  0  0  0  0  0
   -2.3501    0.8030   -2.4574 H   0  0  0  0  0  0  0  0  0  0  0  0
   -6.9879    1.0788   -0.8985 H   0  0  0  0  0  0  0  0  0  0  0  0
   -7.0796   -0.6833   -0.8255 H   0  0  0  0  0  0  0  0  0  0  0  0
   -4.6205    0.9332   -1.7528 H   0  0  0  0  0  0  0  0  0  0  0  0
   -4.6744   -0.8455   -1.6416 H   0  0  0  0  0  0  0  0  0  0  0  0
    0.6139   -3.3272    0.7203 H   0  0  0  0  0  0  0  0  0  0  0  0
    1.0484    2.9873    0.3157 H   0  0  0  0  0  0  0  0  0  0  0  0
    5.4397   -2.2682    0.2410 H   0  0  0  0  0  0  0  0  0  0  0  0
    5.6692    1.1864    0.0956 H   0  0  0  0  0  0  0  0  0  0  0  0
    2.3113   -4.8987    1.5420 H   0  0  0  0  0  0  0  0  0  0  0  0
    4.7239   -4.3791    1.3127 H   0  0  0  0  0  0  0  0  0  0  0  0
    5.2796    3.4701    0.9205 H   0  0  0  0  0  0  0  0  0  0  0  0
   -6.4823   -0.7943    2.3277 H   0  0  0  0  0  0  0  0  0  0  0  0
   -7.5676   -1.7750    1.3019 H   0  0  0  0  0  0  0  0  0  0  0  0
   -8.1890   -0.8034    2.6437 H   0  0  0  0  0  0  0  0  0  0  0  0
   -9.6797    0.6058    1.4748 H   0  0  0  0  0  0  0  0  0  0  0  0
   -9.4315   -0.4231    0.0464 H   0  0  0  0  0  0  0  0  0  0  0  0
   -9.2185    1.3387   -0.0529 H   0  0  0  0  0  0  0  0  0  0  0  0
  1 23  1  0  0  0  0
  2 13  1  0  0  0  0
  2 17  1  0  0  0  0
  3 14  1  0  0  0  0
  3 16  1  0  0  0  0
  4  7  1  0  0  0  0
  4 10  1  0  0  0  0
  4 28  1  0  0  0  0
  5  8  1  0  0  0  0
  5 10  2  0  0  0  0
  6 15  1  0  0  0  0
  6 26  1  0  0  0  0
  6 27  1  0  0  0  0
  7  8  2  0  0  0  0
  7  9  1  0  0  0  0
  8 11  1  0  0  0  0
  9 14  1  0  0  0  0
  9 18  2  0  0  0  0
 10 13  1  0  0  0  0
 11 16  2  0  0  0  0
 11 19  1  0  0  0  0
 12 15  1  0  0  0  0
 12 17  1  0  0  0  0
 12 29  1  0  0  0  0
 12 30  1  0  0  0  0
 13 31  1  0  0  0  0
 13 32  1  0  0  0  0
 14 20  2  0  0  0  0
 15 33  1  0  0  0  0
 15 34  1  0  0  0  0
 16 21  1  0  0  0  0
 17 35  1  0  0  0  0
 17 36  1  0  0  0  0
 18 22  1  0  0  0  0
 18 37  1  0  0  0  0
 19 23  2  0  0  0  0
 19 38  1  0  0  0  0
 20 24  1  0  0  0  0
 20 39  1  0  0  0  0
 21 25  2  0  0  0  0
 21 40  1  0  0  0  0
 22 24  2  0  0  0  0
 22 41  1  0  0  0  0
 23 25  1  0  0  0  0
 24 42  1  0  0  0  0
 25 43  1  0  0  0  0
 26 44  1  0  0  0  0
 26 45  1  0  0  0  0
 26 46  1  0  0  0  0
 27 47  1  0  0  0  0
 27 48  1  0  0  0  0
 27 49  1  0  0  0  0
M  END
> <PUBCHEM_COMPOUND_CID>
10091395

> <PUBCHEM_CONFORMER_RMSD>
0.8

> <PUBCHEM_CONFORMER_DIVERSEORDER>
1
85
95
75
97
76
52
31
51
103
36
56
84
27
43
74
73
58
15
54
79
35
55
91
13
99
47
77
44
26
48
69
100
38
6
53
83
96
50
25
34
67
72
86
70
19
57
41
14
101
105
11
7
78
80
45
16
12
92
33
81
62
28
23
37
46
90
64
60
65
10
22
42
68
94
104
29
21
89
2
8
93
9
87
82
63
5
102
88
98
71
3
24
30
20
40
39
32
49
4
59
61
66
17
18

> <PUBCHEM_MMFF94_PARTIAL_CHARGES>
34
1 -0.18
10 0.01
11 0.05
13 0.46
14 0.08
15 0.27
16 0.08
17 0.28
18 -0.15
19 -0.15
2 -0.56
20 -0.15
21 -0.15
22 -0.15
23 0.18
24 -0.15
25 -0.15
26 0.27
27 0.27
28 0.27
3 -0.17
37 0.15
38 0.15
39 0.15
4 0.03
40 0.15
41 0.15
42 0.15
43 0.15
5 -0.57
6 -0.81
7 -0.2
8 0.17
9 0.05

> <PUBCHEM_EFFECTIVE_ROTOR_COUNT>
6.2

> <PUBCHEM_PHARMACOPHORE_FEATURES>
9
1 2 acceptor
1 3 acceptor
1 4 donor
1 6 cation
3 4 5 10 cation
5 4 5 7 8 10 rings
6 11 16 19 21 23 25 rings
6 9 14 18 20 22 24 rings
7 3 7 8 9 11 14 16 rings

> <PUBCHEM_HEAVY_ATOM_COUNT>
27

> <PUBCHEM_ATOM_DEF_STEREO_COUNT>
0

> <PUBCHEM_ATOM_UDEF_STEREO_COUNT>
0

> <PUBCHEM_BOND_DEF_STEREO_COUNT>
0

> <PUBCHEM_BOND_UDEF_STEREO_COUNT>
0

> <PUBCHEM_ISOTOPIC_ATOM_COUNT>
0

> <PUBCHEM_COMPONENT_COUNT>
1

> <PUBCHEM_CACTVS_TAUTO_COUNT>
2

> <PUBCHEM_CONFORMER_ID>
0099FB8300000001

> <PUBCHEM_MMFF94_ENERGY>
73.7239

> <PUBCHEM_FEATURE_SELFOVERLAP>
45.736

> <PUBCHEM_SHAPE_FINGERPRINT>
10165383 225 18187090589844856652
10411042 1 18123750847294379950
10675989 125 18057881536098717944
1100329 8 18337934784935764490
12342043 65 17823416003144953311
12730499 353 18334013904130719318
13140716 1 18121763183584201948
13533116 47 18335985294441388531
13540713 4 17751059346202171877
13540713 5 17916285303634178455
13782708 43 17677328295577888443
13785724 45 17840876174252467911
13878862 14 18196908068739591765
13955234 65 18409439293647078922
14114211 68 18115325440177540734
14347424 109 18410573943087969099
14565420 104 18268424810024309625
146900 427 18412825806767157063
14849402 71 18411697716606731152
15183329 4 9511193932580599813
15238133 3 16774072964972360031
15475509 35 17168412766971193922
15475509 84 18198902509480296721
15927050 60 18266732675189576766
16992779 147 18270680995100279385
21033648 29 18050562138890203120
21049683 271 18187651250501490366
21130935 74 18334582335470407955
21344244 78 18128804270831954624
21421861 104 18339345419192645080
21814621 53 18186809042165165657
22033318 11 17771928055702092433
22122407 14 18059027163380480337
22956985 138 14636804793358814505
23845131 108 18191862534021984306
25147074 1 17916566748567145559
283562 15 17403433665213541294
3178227 256 18408037429760571192
3663271 9 18342462552407094947
397830 11 18337399361422059347
4073 2 18262803003272272211
4340502 62 18261393377472232879
437795 51 18260835890765003302
5104073 3 18336828572921506481
5385378 56 18411131468039149464
57634706 229 17691406730033344104
6700243 42 15358537416024374895
70251023 43 18127138464120677422
86090 222 17531253816267217787
8863177 126 18040721338260130187

> <PUBCHEM_SHAPE_MULTIPOLES>
530.84
17.86
4.97
1.32
62.41
1.48
-0.01
2.03
-7.48
-12.36
-3.06
1.28
-0.06
0.38

> <PUBCHEM_SHAPE_SELFOVERLAP>
1145.519

> <PUBCHEM_SHAPE_VOLUME>
293.3

> <PUBCHEM_COORDINATE_TYPE>
2
5
10

$$$$
