5282111
  -OEChem-02172602543D

 62 63  0     1  0  0  0  0  0999 V2000
   -2.8497   -0.6899   -0.9097 O   0  0  0  0  0  0  0  0  0  0  0  0
   -2.3771    3.9572    0.0517 O   0  0  0  0  0  0  0  0  0  0  0  0
   -1.0353    1.8633   -2.1800 O   0  0  0  0  0  0  0  0  0  0  0  0
   -7.9402   -3.9761    0.3158 O   0  0  0  0  0  0  0  0  0  0  0  0
   -4.3569    2.8897    0.5811 N   0  0  0  0  0  0  0  0  0  0  0  0
    7.3168   -2.0559    0.0061 C   0  0  1  0  0  0  0  0  0  0  0  0
    8.0126   -0.6774   -0.1109 C   0  0  0  0  0  0  0  0  0  0  0  0
    7.3439    0.4964    0.6416 C   0  0  1  0  0  0  0  0  0  0  0  0
    8.0220   -3.1379   -0.8282 C   0  0  0  0  0  0  0  0  0  0  0  0
    7.1479   -2.4737    1.4712 C   0  0  0  0  0  0  0  0  0  0  0  0
    8.1611    1.7897    0.5231 C   0  0  0  0  0  0  0  0  0  0  0  0
    5.9680    0.7526    0.0581 C   0  0  0  0  0  0  0  0  0  0  0  0
    8.1450   -2.7792   -2.3035 C   0  0  0  0  0  0  0  0  0  0  0  0
    4.7712    0.7239    0.6828 C   0  0  0  0  0  0  0  0  0  0  0  0
    4.5911    0.4401    2.1513 C   0  0  0  0  0  0  0  0  0  0  0  0
    3.5657    0.9959   -0.1057 C   0  0  0  0  0  0  0  0  0  0  0  0
    2.2995    1.0105    0.3430 C   0  0  0  0  0  0  0  0  0  0  0  0
    1.1651    1.2897   -0.5133 C   0  0  0  0  0  0  0  0  0  0  0  0
   -4.6330    0.5350    0.1084 C   0  0  0  0  0  0  0  0  0  0  0  0
   -2.5904    1.6329   -0.4381 C   0  0  0  0  0  0  0  0  0  0  0  0
   -5.4869   -0.6312    0.1613 C   0  0  0  0  0  0  0  0  0  0  0  0
   -3.3477    0.4827   -0.4196 C   0  0  0  0  0  0  0  0  0  0  0  0
   -0.0969    1.3032   -0.0612 C   0  0  0  0  0  0  0  0  0  0  0  0
   -1.2159    1.6093   -0.9941 C   0  0  0  0  0  0  0  0  0  0  0  0
   -5.0866    1.7516    0.5917 C   0  0  0  0  0  0  0  0  0  0  0  0
   -3.1126    2.8003    0.0600 C   0  0  0  0  0  0  0  0  0  0  0  0
   -6.3365   -0.9232   -0.9059 C   0  0  0  0  0  0  0  0  0  0  0  0
   -5.4619   -1.4640    1.2803 C   0  0  0  0  0  0  0  0  0  0  0  0
   -7.1607   -2.0474   -0.8541 C   0  0  0  0  0  0  0  0  0  0  0  0
   -6.2860   -2.5882    1.3319 C   0  0  0  0  0  0  0  0  0  0  0  0
   -7.1354   -2.8799    0.2648 C   0  0  0  0  0  0  0  0  0  0  0  0
    6.3048   -1.9572   -0.4094 H   0  0  0  0  0  0  0  0  0  0  0  0
    8.0938   -0.3940   -1.1672 H   0  0  0  0  0  0  0  0  0  0  0  0
    9.0436   -0.7798    0.2542 H   0  0  0  0  0  0  0  0  0  0  0  0
    7.3027    0.2515    1.7045 H   0  0  0  0  0  0  0  0  0  0  0  0
    7.4589   -4.0756   -0.7446 H   0  0  0  0  0  0  0  0  0  0  0  0
    9.0216   -3.3327   -0.4216 H   0  0  0  0  0  0  0  0  0  0  0  0
    6.4717   -1.8090    2.0123 H   0  0  0  0  0  0  0  0  0  0  0  0
    8.1123   -2.4836    1.9899 H   0  0  0  0  0  0  0  0  0  0  0  0
    6.7227   -3.4813    1.5355 H   0  0  0  0  0  0  0  0  0  0  0  0
    8.2802    2.0980   -0.5219 H   0  0  0  0  0  0  0  0  0  0  0  0
    7.6798    2.6105    1.0667 H   0  0  0  0  0  0  0  0  0  0  0  0
    9.1616    1.6499    0.9464 H   0  0  0  0  0  0  0  0  0  0  0  0
    5.9836    0.9794   -1.0095 H   0  0  0  0  0  0  0  0  0  0  0  0
    7.1809   -2.4696   -2.7189 H   0  0  0  0  0  0  0  0  0  0  0  0
    8.4913   -3.6508   -2.8690 H   0  0  0  0  0  0  0  0  0  0  0  0
    8.8737   -1.9802   -2.4675 H   0  0  0  0  0  0  0  0  0  0  0  0
    4.0262   -0.4875    2.2955 H   0  0  0  0  0  0  0  0  0  0  0  0
    4.0510    1.2598    2.6385 H   0  0  0  0  0  0  0  0  0  0  0  0
    5.5291    0.3337    2.6983 H   0  0  0  0  0  0  0  0  0  0  0  0
    3.7342    1.2055   -1.1623 H   0  0  0  0  0  0  0  0  0  0  0  0
    2.0752    0.8058    1.3861 H   0  0  0  0  0  0  0  0  0  0  0  0
    1.3802    1.4965   -1.5586 H   0  0  0  0  0  0  0  0  0  0  0  0
   -0.3407    1.1018    0.9768 H   0  0  0  0  0  0  0  0  0  0  0  0
   -6.0802    1.8614    1.0171 H   0  0  0  0  0  0  0  0  0  0  0  0
   -6.3683   -0.2848   -1.7857 H   0  0  0  0  0  0  0  0  0  0  0  0
   -4.8053   -1.2513    2.1208 H   0  0  0  0  0  0  0  0  0  0  0  0
   -7.8181   -2.2637   -1.6920 H   0  0  0  0  0  0  0  0  0  0  0  0
   -6.2619   -3.2330    2.2063 H   0  0  0  0  0  0  0  0  0  0  0  0
   -3.4960   -1.4084   -0.8266 H   0  0  0  0  0  0  0  0  0  0  0  0
   -1.5152    3.8135   -0.3704 H   0  0  0  0  0  0  0  0  0  0  0  0
   -8.4597   -4.0241   -0.5051 H   0  0  0  0  0  0  0  0  0  0  0  0
  1 22  1  0  0  0  0
  1 60  1  0  0  0  0
  2 26  1  0  0  0  0
  2 61  1  0  0  0  0
  3 24  2  0  0  0  0
  4 31  1  0  0  0  0
  4 62  1  0  0  0  0
  5 25  1  0  0  0  0
  5 26  2  0  0  0  0
  6  7  1  0  0  0  0
  6  9  1  0  0  0  0
  6 10  1  0  0  0  0
  6 32  1  0  0  0  0
  7  8  1  0  0  0  0
  7 33  1  0  0  0  0
  7 34  1  0  0  0  0
  8 11  1  0  0  0  0
  8 12  1  0  0  0  0
  8 35  1  0  0  0  0
  9 13  1  0  0  0  0
  9 36  1  0  0  0  0
  9 37  1  0  0  0  0
 10 38  1  0  0  0  0
 10 39  1  0  0  0  0
 10 40  1  0  0  0  0
 11 41  1  0  0  0  0
 11 42  1  0  0  0  0
 11 43  1  0  0  0  0
 12 14  2  0  0  0  0
 12 44  1  0  0  0  0
 13 45  1  0  0  0  0
 13 46  1  0  0  0  0
 13 47  1  0  0  0  0
 14 15  1  0  0  0  0
 14 16  1  0  0  0  0
 15 48  1  0  0  0  0
 15 49  1  0  0  0  0
 15 50  1  0  0  0  0
 16 17  2  0  0  0  0
 16 51  1  0  0  0  0
 17 18  1  0  0  0  0
 17 52  1  0  0  0  0
 18 23  2  0  0  0  0
 18 53  1  0  0  0  0
 19 21  1  0  0  0  0
 19 22  1  0  0  0  0
 19 25  2  0  0  0  0
 20 22  2  0  0  0  0
 20 24  1  0  0  0  0
 20 26  1  0  0  0  0
 21 27  2  0  0  0  0
 21 28  1  0  0  0  0
 23 24  1  0  0  0  0
 23 54  1  0  0  0  0
 25 55  1  0  0  0  0
 27 29  1  0  0  0  0
 27 56  1  0  0  0  0
 28 30  2  0  0  0  0
 28 57  1  0  0  0  0
 29 31  2  0  0  0  0
 29 58  1  0  0  0  0
 30 31  1  0  0  0  0
 30 59  1  0  0  0  0
M  END
> <PUBCHEM_COMPOUND_CID>
5282111

> <PUBCHEM_CONFORMER_RMSD>
1

> <PUBCHEM_CONFORMER_DIVERSEORDER>
1
10
24
202
218
198
138
213
177
208
70
194
224
149
69
9
233
34
5
228
88
209
210
50
169
39
187
231
180
82
33
109
41
20
207
220
219
238
95
154
205
127
73
140
190
204
71
172
122
92
8
197
181
146
51
129
104
125
106
174
40
61
54
229
123
141
116
135
14
156
152
90
21
137
31
3
158
130
143
36
179
235
87
115
6
206
11
100
57
110
214
22
163
18
32
45
184
113
199
139
49
30
128
168
157
2
173
211
170
26
133
12
165
183
151
178
232
189
201
186
153
67
118
167
171
160
134
44
13
89
216
111
19
175
62
103
132
126
59
147
162
121
97
112
159
91
176
193
203
52
124
191
65
58
150
85
25
4
117
16
38
7
98
64
46
47
131
119
226
83
230
60
42
192
28
68
63
223
15
182
78
76
148
215
236
222
164
81
53
80
99
225
155
101
200
23
75
188
195
221
84
37
145
114
72
29
43
237
196
27
86
108
35
93
105
55
79
96
77
56
142
136
17
217
161
144
66
94
212
120
74
107
227
234
166
185
102
48

> <PUBCHEM_MMFF94_PARTIAL_CHARGES>
36
1 -0.53
12 -0.29
14 -0.14
15 0.14
16 -0.15
17 -0.15
18 -0.15
2 -0.53
20 0.09
22 0.08
23 -0.14
24 0.47
25 0.16
26 0.39
27 -0.15
28 -0.15
29 -0.15
3 -0.57
30 -0.15
31 0.08
4 -0.53
44 0.15
5 -0.62
51 0.15
52 0.15
53 0.15
54 0.15
55 0.15
56 0.15
57 0.15
58 0.15
59 0.15
60 0.45
61 0.45
62 0.45
8 0.14

> <PUBCHEM_EFFECTIVE_ROTOR_COUNT>
9

> <PUBCHEM_PHARMACOPHORE_FEATURES>
10
1 1 donor
1 10 hydrophobe
1 11 hydrophobe
1 13 hydrophobe
1 15 hydrophobe
1 3 acceptor
1 4 donor
5 6 7 8 9 12 hydrophobe
6 21 27 28 29 30 31 rings
6 5 19 20 22 25 26 rings

> <PUBCHEM_HEAVY_ATOM_COUNT>
31

> <PUBCHEM_ATOM_DEF_STEREO_COUNT>
2

> <PUBCHEM_ATOM_UDEF_STEREO_COUNT>
0

> <PUBCHEM_BOND_DEF_STEREO_COUNT>
3

> <PUBCHEM_BOND_UDEF_STEREO_COUNT>
0

> <PUBCHEM_ISOTOPIC_ATOM_COUNT>
0

> <PUBCHEM_COMPONENT_COUNT>
1

> <PUBCHEM_CACTVS_TAUTO_COUNT>
34

> <PUBCHEM_CONFORMER_ID>
0050993F00000001

> <PUBCHEM_MMFF94_ENERGY>
84.1013

> <PUBCHEM_FEATURE_SELFOVERLAP>
50.839

> <PUBCHEM_SHAPE_FINGERPRINT>
10258705 36 18271816687939057166
10369192 42 9439135260558777713
11387372 6 18411417340920362655
11408170 108 18272372001609112727
11497681 19 18261107487200537788
117089 54 18409452522062000329
11761917 87 16916516831450881638
11973864 196 11815604239636543435
12144600 37 18342178830798439478
125118 31 10231749003661163658
12539747 164 18114186303023625141
1361 4 18334292038029426282
13782708 43 18410852144988688744
14344974 204 18341052999042134703
14556957 393 14490474128155453366
15352257 5 18337954494229137562
15510800 12 18187937213239529379
16126227 98 9871756806241388619
16993089 31 18410572856060830598
16994733 274 9943518601359645494
18335252 98 18341330072584058968
2026 5 18338233882026705671
21130935 74 18412544272235884880
21792938 703 17895207631728507082
23389318 12 17458627869602421268
23522609 53 17970657145829327260
23569943 247 17973438798947001690
25025965 108 18130490999512228527
335507 130 18342452686840972172
3383291 50 18262235637660376739
4149490 64 18342450419425183874
4625314 4 18335699420923048373
474113 269 18340477985390151287
4760202 70 18041848444968225188
49967989 163 17458352969677276875
5028188 123 18334019355151398972
58083652 198 15913033331370028913
9831232 110 18198062479187594478
9896288 288 18270964544978346601
999808 66 18409451405623658699

> <PUBCHEM_SHAPE_MULTIPOLES>
609.51
31.2
4.29
1.46
32.56
1.7
0.17
29.91
-1.29
-3.71
0.21
1.59
0.62
2.94

> <PUBCHEM_SHAPE_SELFOVERLAP>
1271.047

> <PUBCHEM_SHAPE_VOLUME>
346.7

> <PUBCHEM_COORDINATE_TYPE>
2
5
10

$$$$
