5323562
  -OEChem-02172602253D

 71 75  0     1  0  0  0  0  0999 V2000
    3.9360   -1.7844   -1.0844 O   0  0  0  0  0  0  0  0  0  0  0  0
   -5.0784    0.8293   -0.8080 O   0  0  0  0  0  0  0  0  0  0  0  0
    3.2431   -0.2615    0.5915 O   0  0  0  0  0  0  0  0  0  0  0  0
   -4.4654   -1.1559    0.3283 O   0  0  0  0  0  0  0  0  0  0  0  0
    6.0088   -0.3980    1.4283 O   0  0  0  0  0  0  0  0  0  0  0  0
    7.1655   -2.6999    0.4066 O   0  0  0  0  0  0  0  0  0  0  0  0
   -7.2523   -1.2101    1.1016 O   0  0  0  0  0  0  0  0  0  0  0  0
   -8.3344    1.3255    0.8182 O   0  0  0  0  0  0  0  0  0  0  0  0
    5.5828    0.4188   -2.1051 O   0  0  0  0  0  0  0  0  0  0  0  0
   -6.7340   -0.9039   -2.4998 O   0  0  0  0  0  0  0  0  0  0  0  0
   -0.2184    0.9687    0.2869 O   0  0  0  0  0  0  0  0  0  0  0  0
    1.7213   -2.5832    0.7622 O   0  0  0  0  0  0  0  0  0  0  0  0
   -0.5722   -3.8386    0.7891 O   0  0  0  0  0  0  0  0  0  0  0  0
    3.6202    5.9450   -0.0799 O   0  0  0  0  0  0  0  0  0  0  0  0
    6.2647   -0.4833    0.0270 C   0  0  1  0  0  0  0  0  0  0  0  0
    6.2591   -1.9553   -0.3980 C   0  0  2  0  0  0  0  0  0  0  0  0
   -7.4638   -0.6881   -0.2096 C   0  0  1  0  0  0  0  0  0  0  0  0
   -7.4178    0.8424   -0.1565 C   0  0  2  0  0  0  0  0  0  0  0  0
    5.1908    0.2943   -0.7394 C   0  0  2  0  0  0  0  0  0  0  0  0
    4.8497   -2.5460   -0.2891 C   0  0  2  0  0  0  0  0  0  0  0  0
   -6.3816   -1.2190   -1.1543 C   0  0  2  0  0  0  0  0  0  0  0  0
   -6.0015    1.3318    0.1630 C   0  0  2  0  0  0  0  0  0  0  0  0
    3.8283   -0.4108   -0.6982 C   0  0  1  0  0  0  0  0  0  0  0  0
   -5.0081   -0.5987   -0.8647 C   0  0  1  0  0  0  0  0  0  0  0  0
    4.8012   -3.9850   -0.7944 C   0  0  0  0  0  0  0  0  0  0  0  0
   -5.9110    2.8547    0.1303 C   0  0  0  0  0  0  0  0  0  0  0  0
    1.8680   -0.2336    0.5057 C   0  0  0  0  0  0  0  0  0  0  0  0
   -3.1064   -1.2495    0.3980 C   0  0  0  0  0  0  0  0  0  0  0  0
   -0.3311   -1.4427    0.5409 C   0  0  0  0  0  0  0  0  0  0  0  0
    1.1360   -1.5185    0.6156 C   0  0  0  0  0  0  0  0  0  0  0  0
   -0.9338   -0.1970    0.3800 C   0  0  0  0  0  0  0  0  0  0  0  0
    1.1649    0.9021    0.3438 C   0  0  0  0  0  0  0  0  0  0  0  0
   -2.3236   -0.0984    0.3086 C   0  0  0  0  0  0  0  0  0  0  0  0
   -2.5014   -2.4966    0.5588 C   0  0  0  0  0  0  0  0  0  0  0  0
   -1.1116   -2.5978    0.6311 C   0  0  0  0  0  0  0  0  0  0  0  0
    1.8089    2.2229    0.2329 C   0  0  0  0  0  0  0  0  0  0  0  0
    2.1773    2.7168   -1.0188 C   0  0  0  0  0  0  0  0  0  0  0  0
    2.0494    2.9806    1.3794 C   0  0  0  0  0  0  0  0  0  0  0  0
    2.7862    3.9674   -1.1240 C   0  0  0  0  0  0  0  0  0  0  0  0
    2.6581    4.2312    1.2741 C   0  0  0  0  0  0  0  0  0  0  0  0
    3.0267    4.7246    0.0225 C   0  0  0  0  0  0  0  0  0  0  0  0
    7.2568   -0.0527   -0.1513 H   0  0  0  0  0  0  0  0  0  0  0  0
    6.6052   -2.0113   -1.4381 H   0  0  0  0  0  0  0  0  0  0  0  0
   -8.4579   -1.0153   -0.5355 H   0  0  0  0  0  0  0  0  0  0  0  0
   -7.7311    1.2270   -1.1357 H   0  0  0  0  0  0  0  0  0  0  0  0
    5.1011    1.3009   -0.3138 H   0  0  0  0  0  0  0  0  0  0  0  0
    4.5113   -2.5529    0.7544 H   0  0  0  0  0  0  0  0  0  0  0  0
   -6.3217   -2.3100   -1.0601 H   0  0  0  0  0  0  0  0  0  0  0  0
   -5.6912    1.0065    1.1640 H   0  0  0  0  0  0  0  0  0  0  0  0
    3.1959    0.0485   -1.4683 H   0  0  0  0  0  0  0  0  0  0  0  0
   -4.3468   -0.8349   -1.7096 H   0  0  0  0  0  0  0  0  0  0  0  0
    5.1492   -4.0485   -1.8313 H   0  0  0  0  0  0  0  0  0  0  0  0
    5.4059   -4.6557   -0.1776 H   0  0  0  0  0  0  0  0  0  0  0  0
    3.7694   -4.3538   -0.7883 H   0  0  0  0  0  0  0  0  0  0  0  0
   -6.2262    3.2456   -0.8435 H   0  0  0  0  0  0  0  0  0  0  0  0
   -6.5213    3.3176    0.9109 H   0  0  0  0  0  0  0  0  0  0  0  0
   -4.8729    3.1748    0.2741 H   0  0  0  0  0  0  0  0  0  0  0  0
    6.6850   -0.9311    1.8803 H   0  0  0  0  0  0  0  0  0  0  0  0
    7.3153   -3.5564   -0.0274 H   0  0  0  0  0  0  0  0  0  0  0  0
   -7.9318   -0.8249    1.6809 H   0  0  0  0  0  0  0  0  0  0  0  0
   -8.4546    2.2781    0.6682 H   0  0  0  0  0  0  0  0  0  0  0  0
    4.9275    0.9837   -2.5489 H   0  0  0  0  0  0  0  0  0  0  0  0
   -6.0709   -1.3128   -3.0817 H   0  0  0  0  0  0  0  0  0  0  0  0
   -2.7787    0.8818    0.2032 H   0  0  0  0  0  0  0  0  0  0  0  0
   -3.1167   -3.3905    0.6278 H   0  0  0  0  0  0  0  0  0  0  0  0
    1.9905    2.1429   -1.9231 H   0  0  0  0  0  0  0  0  0  0  0  0
    1.7674    2.6094    2.3618 H   0  0  0  0  0  0  0  0  0  0  0  0
    0.3954   -3.7881    0.8182 H   0  0  0  0  0  0  0  0  0  0  0  0
    3.0672    4.3408   -2.1051 H   0  0  0  0  0  0  0  0  0  0  0  0
    2.8427    4.8165    2.1708 H   0  0  0  0  0  0  0  0  0  0  0  0
    3.8068    6.1268   -1.0171 H   0  0  0  0  0  0  0  0  0  0  0  0
  1 20  1  0  0  0  0
  1 23  1  0  0  0  0
  2 22  1  0  0  0  0
  2 24  1  0  0  0  0
  3 23  1  0  0  0  0
  3 27  1  0  0  0  0
  4 24  1  0  0  0  0
  4 28  1  0  0  0  0
  5 15  1  0  0  0  0
  5 58  1  0  0  0  0
  6 16  1  0  0  0  0
  6 59  1  0  0  0  0
  7 17  1  0  0  0  0
  7 60  1  0  0  0  0
  8 18  1  0  0  0  0
  8 61  1  0  0  0  0
  9 19  1  0  0  0  0
  9 62  1  0  0  0  0
 10 21  1  0  0  0  0
 10 63  1  0  0  0  0
 11 31  1  0  0  0  0
 11 32  1  0  0  0  0
 12 30  2  0  0  0  0
 13 35  1  0  0  0  0
 13 68  1  0  0  0  0
 14 41  1  0  0  0  0
 14 71  1  0  0  0  0
 15 16  1  0  0  0  0
 15 19  1  0  0  0  0
 15 42  1  0  0  0  0
 16 20  1  0  0  0  0
 16 43  1  0  0  0  0
 17 18  1  0  0  0  0
 17 21  1  0  0  0  0
 17 44  1  0  0  0  0
 18 22  1  0  0  0  0
 18 45  1  0  0  0  0
 19 23  1  0  0  0  0
 19 46  1  0  0  0  0
 20 25  1  0  0  0  0
 20 47  1  0  0  0  0
 21 24  1  0  0  0  0
 21 48  1  0  0  0  0
 22 26  1  0  0  0  0
 22 49  1  0  0  0  0
 23 50  1  0  0  0  0
 24 51  1  0  0  0  0
 25 52  1  0  0  0  0
 25 53  1  0  0  0  0
 25 54  1  0  0  0  0
 26 55  1  0  0  0  0
 26 56  1  0  0  0  0
 26 57  1  0  0  0  0
 27 30  1  0  0  0  0
 27 32  2  0  0  0  0
 28 33  1  0  0  0  0
 28 34  2  0  0  0  0
 29 30  1  0  0  0  0
 29 31  1  0  0  0  0
 29 35  2  0  0  0  0
 31 33  2  0  0  0  0
 32 36  1  0  0  0  0
 33 64  1  0  0  0  0
 34 35  1  0  0  0  0
 34 65  1  0  0  0  0
 36 37  2  0  0  0  0
 36 38  1  0  0  0  0
 37 39  1  0  0  0  0
 37 66  1  0  0  0  0
 38 40  2  0  0  0  0
 38 67  1  0  0  0  0
 39 41  2  0  0  0  0
 39 69  1  0  0  0  0
 40 41  1  0  0  0  0
 40 70  1  0  0  0  0
M  END
> <PUBCHEM_COMPOUND_CID>
5323562

> <PUBCHEM_CONFORMER_RMSD>
1

> <PUBCHEM_CONFORMER_DIVERSEORDER>
1
243
165
258
19
26
262
188
212
202
290
214
152
293
259
245
128
112
199
266
263
160
277
295
149
218
182
252
96
197
264
157
285
232
99
253
256
174
260
156
227
25
65
186
171
166
271
138
296
274
275
240
84
71
194
238
234
30
237
265
126
53
289
67
147
97
276
180
273
183
141
201
251
139
115
282
35
177
233
291
98
81
170
226
52
261
107
200
130
210
287
288
228
284
216
140
286
206
143
208
131
151
297
236
146
283
193
179
267
108
281
92
173
72
207
257
213
195
17
87
59
29
93
268
148
185
196
45
153
41
100
229
114
16
78
18
292
168
127
74
113
55
164
280
110
118
250
88
254
192
161
58
44
94
204
61
69
56
145
223
24
66
184
209
198
70
278
175
48
60
235
162
121
68
219
176
22
255
249
33
124
205
248
36
38
187
225
95
155
37
242
101
222
135
64
136
42
12
224
129
217
120
211
63
62
91
32
137
181
80
9
159
244
109
116
191
54
117
6
163
178
89
13
49
221
76
102
272
172
169
158
7
57
189
247
39
203
34
230
106
294
154
270
142
50
103
111
134
246
279
85
86
125
46
150
75
51
20
47
132
21
8
40
27
4
215
144
3
73
133
82
90
83
15
220
23
231
11
241
14
28
119
190
269
239
167
77
105
5
123
122
104
43
31
2
79
10

> <PUBCHEM_MMFF94_PARTIAL_CHARGES>
53
1 -0.56
10 -0.68
11 -0.16
12 -0.57
13 -0.53
14 -0.53
15 0.28
16 0.28
17 0.28
18 0.28
19 0.28
2 -0.56
20 0.28
21 0.28
22 0.28
23 0.56
24 0.56
27 0.09
28 0.08
29 0.09
3 -0.36
30 0.47
31 0.08
32 0.05
33 -0.15
34 -0.15
35 0.08
36 0.03
37 -0.15
38 -0.15
39 -0.15
4 -0.36
40 -0.15
41 0.08
5 -0.68
58 0.4
59 0.4
6 -0.68
60 0.4
61 0.4
62 0.4
63 0.4
64 0.15
65 0.15
66 0.15
67 0.15
68 0.45
69 0.15
7 -0.68
70 0.15
71 0.45
8 -0.68
9 -0.68

> <PUBCHEM_EFFECTIVE_ROTOR_COUNT>
7.4

> <PUBCHEM_PHARMACOPHORE_FEATURES>
25
1 1 acceptor
1 10 acceptor
1 10 donor
1 11 acceptor
1 12 acceptor
1 13 donor
1 14 donor
1 2 acceptor
1 3 acceptor
1 4 acceptor
1 5 acceptor
1 5 donor
1 6 acceptor
1 6 donor
1 7 acceptor
1 7 donor
1 8 acceptor
1 8 donor
1 9 acceptor
1 9 donor
6 1 15 16 19 20 23 rings
6 11 27 29 30 31 32 rings
6 2 17 18 21 22 24 rings
6 28 29 31 33 34 35 rings
6 36 37 38 39 40 41 rings

> <PUBCHEM_HEAVY_ATOM_COUNT>
41

> <PUBCHEM_ATOM_DEF_STEREO_COUNT>
10

> <PUBCHEM_ATOM_UDEF_STEREO_COUNT>
0

> <PUBCHEM_BOND_DEF_STEREO_COUNT>
0

> <PUBCHEM_BOND_UDEF_STEREO_COUNT>
0

> <PUBCHEM_ISOTOPIC_ATOM_COUNT>
0

> <PUBCHEM_COMPONENT_COUNT>
1

> <PUBCHEM_CACTVS_TAUTO_COUNT>
21

> <PUBCHEM_CONFORMER_ID>
00513B2A00000001

> <PUBCHEM_MMFF94_ENERGY>
139.2364

> <PUBCHEM_FEATURE_SELFOVERLAP>
127.034

> <PUBCHEM_SHAPE_FINGERPRINT>
10050765 1 18193557998031761163
10675989 125 18337673130505352096
10763959 59 18410855464623582915
10816530 90 18261109733938347656
10985338 15 13696155184331706668
11331351 85 17916297238788766866
11456790 92 18187082823652324920
12107698 1 18201717349594145197
12166972 35 18344144778457175905
12664476 115 18040714767355202205
12741549 16 17346026789655103080
13540713 4 18043537328919241059
140371 6 18342188777874119058
14068700 675 18201998781268132064
14117953 113 18341338812716367542
14400156 266 18059592269349792524
14849402 71 18408887309172464689
15183329 4 18409733941341532575
15400415 2 17618509122234034928
15439362 3 18194119844748383960
18365409 1 16987987444702828462
18608769 82 18187654617914657915
18681886 176 18272079483696042387
19053607 189 17978504570332259872
21133410 127 17825661420411429877
21223535 225 18341886343515390005
22224240 67 8862932875622469606
22311459 1 18408882927683837274
23559900 14 18341325694994318554
23576562 1 18190467244944118518
24771293 8 18270945934726472992
24771750 20 18192724559954598060
249057 25 17775014500858006785
3103668 31 18045781187238474444
3178227 256 18336276660711977747
335352 9 18408605859543915302
350125 39 18334858316387218657
3534868 343 18191319182764139662
4066623 53 18333729126477945060
4144715 1 18043538415503600091
44317340 157 18341051913068873589
508180 173 18337675209163821137
53794403 172 18263362654100310781
58902169 19 18131063840479257807
6004065 56 18342172289320920826
6086070 43 18333452053615528299
9962374 69 18342165713710238127

> <PUBCHEM_SHAPE_MULTIPOLES>
761.59
20.78
5.72
1.26
30.16
6.83
0.41
-4.38
3.89
-9.3
-0.38
0.07
0.1
0.04

> <PUBCHEM_SHAPE_SELFOVERLAP>
1662.182

> <PUBCHEM_SHAPE_VOLUME>
406.1

> <PUBCHEM_COORDINATE_TYPE>
2
5
10

$$$$
