12921512
  -OEChem-02172602533D

 37 36  0     1  0  0  0  0  0999 V2000
   -0.4865    0.0079    0.3889 P   0  0  0  0  0  0  0  0  0  0  0  0
    2.6066   -0.1401   -0.4380 P   0  0  2  0  0  0  0  0  0  0  0  0
   -0.6348   -1.5399   -0.0637 O   0  0  0  0  0  0  0  0  0  0  0  0
   -1.7482    0.7304   -0.3225 O   0  0  0  0  0  0  0  0  0  0  0  0
    0.5956    0.4253   -1.8997 O   0  0  0  0  0  0  0  0  0  0  0  0
   -0.3825    0.2178    1.8719 O   0  0  0  0  0  0  0  0  0  0  0  0
    3.0167    0.0141    1.1189 O   0  0  0  0  0  0  0  0  0  0  0  0
    2.3390   -1.7286   -0.5825 O   0  0  0  0  0  0  0  0  0  0  0  0
    3.5881    0.4193   -1.4252 O   0  0  0  0  0  0  0  0  0  0  0  0
    0.9558    0.5695   -0.5296 C   0  0  1  0  0  0  0  0  0  0  0  0
   -1.6948   -2.3051    0.4817 C   0  0  0  0  0  0  0  0  0  0  0  0
   -1.8006    2.1456   -0.3584 C   0  0  0  0  0  0  0  0  0  0  0  0
   -1.5970   -3.7337   -0.0317 C   0  0  0  0  0  0  0  0  0  0  0  0
   -3.0210   -1.6591    0.1109 C   0  0  0  0  0  0  0  0  0  0  0  0
   -1.7358    2.6853    1.0623 C   0  0  0  0  0  0  0  0  0  0  0  0
   -3.0705    2.5817   -1.0730 C   0  0  0  0  0  0  0  0  0  0  0  0
    3.0697    1.3097    1.6894 C   0  0  0  0  0  0  0  0  0  0  0  0
    1.0694    1.6415   -0.3459 H   0  0  0  0  0  0  0  0  0  0  0  0
   -1.5884   -2.3228    1.5724 H   0  0  0  0  0  0  0  0  0  0  0  0
   -0.9513    2.5264   -0.9340 H   0  0  0  0  0  0  0  0  0  0  0  0
   -2.3841   -4.3656    0.3906 H   0  0  0  0  0  0  0  0  0  0  0  0
   -0.6245   -4.1658    0.2278 H   0  0  0  0  0  0  0  0  0  0  0  0
   -1.6716   -3.7613   -1.1243 H   0  0  0  0  0  0  0  0  0  0  0  0
   -3.8513   -2.3478    0.3033 H   0  0  0  0  0  0  0  0  0  0  0  0
   -3.2191   -0.7731    0.7212 H   0  0  0  0  0  0  0  0  0  0  0  0
   -3.0545   -1.3755   -0.9461 H   0  0  0  0  0  0  0  0  0  0  0  0
   -2.0058    3.7465    1.0893 H   0  0  0  0  0  0  0  0  0  0  0  0
   -0.7235    2.6132    1.4701 H   0  0  0  0  0  0  0  0  0  0  0  0
   -2.4102    2.1394    1.7306 H   0  0  0  0  0  0  0  0  0  0  0  0
   -3.1368    3.6716   -1.1428 H   0  0  0  0  0  0  0  0  0  0  0  0
   -3.1006    2.1636   -2.0850 H   0  0  0  0  0  0  0  0  0  0  0  0
   -3.9588    2.2076   -0.5520 H   0  0  0  0  0  0  0  0  0  0  0  0
    0.4836   -0.5257   -2.0688 H   0  0  0  0  0  0  0  0  0  0  0  0
    3.1064   -2.3392   -0.6017 H   0  0  0  0  0  0  0  0  0  0  0  0
    3.5504    2.0106    1.0015 H   0  0  0  0  0  0  0  0  0  0  0  0
    2.0613    1.6546    1.9282 H   0  0  0  0  0  0  0  0  0  0  0  0
    3.6539    1.2614    2.6116 H   0  0  0  0  0  0  0  0  0  0  0  0
  1  3  1  0  0  0  0
  1  4  1  0  0  0  0
  1  6  2  0  0  0  0
  1 10  1  0  0  0  0
  2  7  1  0  0  0  0
  2  8  1  0  0  0  0
  2  9  2  0  0  0  0
  2 10  1  0  0  0  0
  3 11  1  0  0  0  0
  4 12  1  0  0  0  0
  5 10  1  0  0  0  0
  5 33  1  0  0  0  0
  7 17  1  0  0  0  0
  8 34  1  0  0  0  0
 10 18  1  0  0  0  0
 11 13  1  0  0  0  0
 11 14  1  0  0  0  0
 11 19  1  0  0  0  0
 12 15  1  0  0  0  0
 12 16  1  0  0  0  0
 12 20  1  0  0  0  0
 13 21  1  0  0  0  0
 13 22  1  0  0  0  0
 13 23  1  0  0  0  0
 14 24  1  0  0  0  0
 14 25  1  0  0  0  0
 14 26  1  0  0  0  0
 15 27  1  0  0  0  0
 15 28  1  0  0  0  0
 15 29  1  0  0  0  0
 16 30  1  0  0  0  0
 16 31  1  0  0  0  0
 16 32  1  0  0  0  0
 17 35  1  0  0  0  0
 17 36  1  0  0  0  0
 17 37  1  0  0  0  0
M  END
> <PUBCHEM_COMPOUND_CID>
12921512

> <PUBCHEM_CONFORMER_RMSD>
0.8

> <PUBCHEM_CONFORMER_DIVERSEORDER>
2
29
33
13
34
44
11
7
35
39
16
21
26
25
14
41
22
30
6
36
45
1
15
19
23
5
18
38
12
4
28
40
9
3
32
42
10
8
43
20
17
24
31
37
27

> <PUBCHEM_MMFF94_PARTIAL_CHARGES>
15
1 1.24
10 0.28
11 0.28
12 0.28
17 0.28
2 1.24
3 -0.55
33 0.4
34 0.5
4 -0.55
5 -0.68
6 -0.7
7 -0.55
8 -0.77
9 -0.7

> <PUBCHEM_EFFECTIVE_ROTOR_COUNT>
7

> <PUBCHEM_PHARMACOPHORE_FEATURES>
7
1 5 acceptor
1 5 donor
1 6 acceptor
1 8 acceptor
1 9 acceptor
3 11 13 14 hydrophobe
3 12 15 16 hydrophobe

> <PUBCHEM_HEAVY_ATOM_COUNT>
17

> <PUBCHEM_ATOM_DEF_STEREO_COUNT>
0

> <PUBCHEM_ATOM_UDEF_STEREO_COUNT>
1

> <PUBCHEM_BOND_DEF_STEREO_COUNT>
0

> <PUBCHEM_BOND_UDEF_STEREO_COUNT>
0

> <PUBCHEM_ISOTOPIC_ATOM_COUNT>
0

> <PUBCHEM_COMPONENT_COUNT>
1

> <PUBCHEM_CACTVS_TAUTO_COUNT>
1

> <PUBCHEM_CONFORMER_ID>
00C52AA800000002

> <PUBCHEM_MMFF94_ENERGY>
5.3826

> <PUBCHEM_FEATURE_SELFOVERLAP>
35.534

> <PUBCHEM_SHAPE_FINGERPRINT>
1 1 17759530967166291015
12138202 97 18337115566113268284
12500047 106 18337950091555064052
12553582 1 18048042058038639671
12788726 201 18187370985982883299
13083527 12 16832329785132021495
14617773 55 17604139428243402020
15852999 172 18270679740742280334
15906896 17 17895489067443662483
16752209 62 18333729126408716415
16945 1 18336825393801435279
18186145 218 17916019062347452529
19049666 15 18202002080024060770
20388701 513 18267857461966094930
20510252 161 18412263939150717161
20600515 1 17626699289421434747
20711985 344 18336276746094468923
21524375 3 17982448200791665805
21947302 44 17916288464598375176
22112679 90 17531236275615089596
23419403 2 17487884804285600585
23526113 38 17772476677143382190
23557571 272 18270394022443577592
23559900 14 18413109493979072908
23598291 2 17530965752878810782
23598294 1 18334870423535880065
2748010 2 18192163598391822743
305870 269 17618231606820973445
6049 1 18059582424972903120
7364860 26 17115515593498166379
81228 2 18337399334860886995
84936 182 17548685293009255345
88987 49 18335135397617497908

> <PUBCHEM_SHAPE_MULTIPOLES>
316.47
5.22
3.65
1.49
3.45
1.5
-0.12
-0.76
0.25
-4.48
-0.1
0.89
-0.67
0.91

> <PUBCHEM_SHAPE_SELFOVERLAP>
569.54

> <PUBCHEM_SHAPE_VOLUME>
204.8

> <PUBCHEM_COORDINATE_TYPE>
2
5
10

$$$$
