102213702
  -OEChem-02172602483D

 42 41  0     0  0  0  0  0  0999 V2000
   -3.1283    4.4401    1.0464 Br  0  0  0  0  0  0  0  0  0  0  0  0
   -5.1287    0.9222   -0.8113 O   0  0  0  0  0  0  0  0  0  0  0  0
   -5.5787   -0.8633    0.5169 O   0  0  0  0  0  0  0  0  0  0  0  0
   -1.6682   -2.5127   -0.3588 C   0  0  0  0  0  0  0  0  0  0  0  0
   -3.0611   -2.0456    0.0619 C   0  0  0  0  0  0  0  0  0  0  0  0
   -1.2497   -3.8703    0.2206 C   0  0  0  0  0  0  0  0  0  0  0  0
   -3.4305   -0.7252   -0.6151 C   0  0  0  0  0  0  0  0  0  0  0  0
    0.1131   -4.3819   -0.2522 C   0  0  0  0  0  0  0  0  0  0  0  0
   -4.8182   -0.2668   -0.2325 C   0  0  0  0  0  0  0  0  0  0  0  0
    1.2106   -3.4775    0.1198 C   0  0  0  0  0  0  0  0  0  0  0  0
    5.1148   -0.3970    0.3365 C   0  0  0  0  0  0  0  0  0  0  0  0
    5.0413    0.9528   -0.3850 C   0  0  0  0  0  0  0  0  0  0  0  0
    3.9939   -1.3230   -0.0480 C   0  0  0  0  0  0  0  0  0  0  0  0
    2.1040   -2.7411    0.4390 C   0  0  0  0  0  0  0  0  0  0  0  0
    3.1503   -1.8682    0.8389 C   0  0  0  0  0  0  0  0  0  0  0  0
    3.8161    1.7398   -0.0108 C   0  0  0  0  0  0  0  0  0  0  0  0
    2.9222    2.1837   -0.9045 C   0  0  0  0  0  0  0  0  0  0  0  0
    1.7667    2.9079   -0.5087 C   0  0  0  0  0  0  0  0  0  0  0  0
    0.7761    3.5050   -0.1854 C   0  0  0  0  0  0  0  0  0  0  0  0
   -0.3997    4.2076    0.1924 C   0  0  0  0  0  0  0  0  0  0  0  0
   -1.5460    3.6137    0.5399 C   0  0  0  0  0  0  0  0  0  0  0  0
   -1.6288   -2.5754   -1.4538 H   0  0  0  0  0  0  0  0  0  0  0  0
   -0.9407   -1.7472   -0.0629 H   0  0  0  0  0  0  0  0  0  0  0  0
   -3.0981   -1.9305    1.1522 H   0  0  0  0  0  0  0  0  0  0  0  0
   -3.7994   -2.8138   -0.1995 H   0  0  0  0  0  0  0  0  0  0  0  0
   -2.0081   -4.6170   -0.0458 H   0  0  0  0  0  0  0  0  0  0  0  0
   -1.2514   -3.8005    1.3161 H   0  0  0  0  0  0  0  0  0  0  0  0
   -3.4013   -0.8430   -1.7040 H   0  0  0  0  0  0  0  0  0  0  0  0
   -2.7194    0.0542   -0.3201 H   0  0  0  0  0  0  0  0  0  0  0  0
    0.2934   -5.3715    0.1835 H   0  0  0  0  0  0  0  0  0  0  0  0
    0.0973   -4.5118   -1.3405 H   0  0  0  0  0  0  0  0  0  0  0  0
    5.1360   -0.2366    1.4219 H   0  0  0  0  0  0  0  0  0  0  0  0
    6.0624   -0.8832    0.0743 H   0  0  0  0  0  0  0  0  0  0  0  0
    5.0916    0.7969   -1.4701 H   0  0  0  0  0  0  0  0  0  0  0  0
    5.9232    1.5451   -0.1125 H   0  0  0  0  0  0  0  0  0  0  0  0
    3.8946   -1.5562   -1.1062 H   0  0  0  0  0  0  0  0  0  0  0  0
    3.2467   -1.6470    1.8969 H   0  0  0  0  0  0  0  0  0  0  0  0
   -6.0255    1.2288   -0.5582 H   0  0  0  0  0  0  0  0  0  0  0  0
    3.6757    1.9500    1.0475 H   0  0  0  0  0  0  0  0  0  0  0  0
    3.0558    1.9834   -1.9627 H   0  0  0  0  0  0  0  0  0  0  0  0
   -0.3408    5.2924    0.1919 H   0  0  0  0  0  0  0  0  0  0  0  0
   -1.6365    2.5325    0.5501 H   0  0  0  0  0  0  0  0  0  0  0  0
  1 21  1  0  0  0  0
  2  9  1  0  0  0  0
  2 38  1  0  0  0  0
  3  9  2  0  0  0  0
  4  5  1  0  0  0  0
  4  6  1  0  0  0  0
  4 22  1  0  0  0  0
  4 23  1  0  0  0  0
  5  7  1  0  0  0  0
  5 24  1  0  0  0  0
  5 25  1  0  0  0  0
  6  8  1  0  0  0  0
  6 26  1  0  0  0  0
  6 27  1  0  0  0  0
  7  9  1  0  0  0  0
  7 28  1  0  0  0  0
  7 29  1  0  0  0  0
  8 10  1  0  0  0  0
  8 30  1  0  0  0  0
  8 31  1  0  0  0  0
 10 14  3  0  0  0  0
 11 12  1  0  0  0  0
 11 13  1  0  0  0  0
 11 32  1  0  0  0  0
 11 33  1  0  0  0  0
 12 16  1  0  0  0  0
 12 34  1  0  0  0  0
 12 35  1  0  0  0  0
 13 15  2  0  0  0  0
 13 36  1  0  0  0  0
 14 15  1  0  0  0  0
 15 37  1  0  0  0  0
 16 17  2  0  0  0  0
 16 39  1  0  0  0  0
 17 18  1  0  0  0  0
 17 40  1  0  0  0  0
 18 19  3  0  0  0  0
 19 20  1  0  0  0  0
 20 21  2  0  0  0  0
 20 41  1  0  0  0  0
 21 42  1  0  0  0  0
M  END
> <PUBCHEM_COMPOUND_CID>
102213702

> <PUBCHEM_CONFORMER_RMSD>
1

> <PUBCHEM_CONFORMER_DIVERSEORDER>
1
14
79
64
9
147
54
141
75
56
102
5
133
68
100
135
44
70
49
101
66
134
35
119
138
83
143
131
123
85
25
11
28
45
26
81
109
99
110
126
87
139
23
93
98
137
107
116
17
61
6
40
71
47
46
96
125
15
38
30
90
122
128
132
106
67
37
97
73
22
21
69
74
51
57
59
113
89
146
55
48
95
50
117
53
142
42
16
115
108
86
63
18
19
10
149
43
3
20
129
82
62
140
84
145
31
88
114
105
130
8
118
13
65
104
121
144
2
52
120
58
77
24
124
29
32
148
103
127
111
76
27
72
136
41
94
36
33
80
4
12
112
7
78
92
60
34
91
39

> <PUBCHEM_MMFF94_PARTIAL_CHARGES>
25
1 -0.11
10 -0.2
11 0.14
12 0.14
13 -0.29
14 -0.06
15 -0.09
16 -0.29
17 -0.09
18 -0.06
19 -0.06
2 -0.65
20 -0.09
21 -0.04
3 -0.57
36 0.15
37 0.15
38 0.5
39 0.15
40 0.15
41 0.15
42 0.15
7 0.06
8 0.2
9 0.66

> <PUBCHEM_EFFECTIVE_ROTOR_COUNT>
8

> <PUBCHEM_PHARMACOPHORE_FEATURES>
7
1 1 hydrophobe
1 2 acceptor
1 3 acceptor
3 2 3 9 anion
3 4 5 7 hydrophobe
3 6 8 10 hydrophobe
4 11 12 13 16 hydrophobe

> <PUBCHEM_HEAVY_ATOM_COUNT>
21

> <PUBCHEM_ATOM_DEF_STEREO_COUNT>
0

> <PUBCHEM_ATOM_UDEF_STEREO_COUNT>
0

> <PUBCHEM_BOND_DEF_STEREO_COUNT>
3

> <PUBCHEM_BOND_UDEF_STEREO_COUNT>
0

> <PUBCHEM_ISOTOPIC_ATOM_COUNT>
0

> <PUBCHEM_COMPONENT_COUNT>
1

> <PUBCHEM_CACTVS_TAUTO_COUNT>
2

> <PUBCHEM_CONFORMER_ID>
0617A84600000001

> <PUBCHEM_MMFF94_ENERGY>
5.7184

> <PUBCHEM_FEATURE_SELFOVERLAP>
35.581

> <PUBCHEM_SHAPE_FINGERPRINT>
10074138 170 15736513019153366610
12038231 1 17689713056670501118
12925494 130 18265049305528013571
1361 2 16896514287420307105
14466204 15 17329986310617637384
16760501 71 18336552719777729867
17834072 32 18337389447804902198
20567600 299 17980761859545535410
21585483 110 18261943086273460045
3014063 31 18410009948951397964
3246872 21 18411697690393477997
325973 47 18194683906517546913
373842 8 18122347879041809281
463206 1 18265334095644184288
6433294 58 17186442884960680092
653340 110 18340476791020055720
9543594 6 17980205179785443468

> <PUBCHEM_SHAPE_MULTIPOLES>
426.37
11
8.18
0.87
3.2
1.92
-0.04
1.08
0.07
3.28
-0.96
0.15
0.32
-1.92

> <PUBCHEM_SHAPE_SELFOVERLAP>
803.571

> <PUBCHEM_SHAPE_VOLUME>
261.2

> <PUBCHEM_COORDINATE_TYPE>
2
5
10

$$$$
