5463481
  -OEChem-02172602433D

 27 26  0     0  0  0  0  0  0999 V2000
    2.0140   -2.0260    0.4548 O   0  0  0  0  0  0  0  0  0  0  0  0
    0.8058   -1.8241   -0.2133 N   0  0  0  0  0  0  0  0  0  0  0  0
   -0.8191   -0.0223   -0.8165 C   0  0  0  0  0  0  0  0  0  0  0  0
   -1.9449    0.0019    0.2148 C   0  0  0  0  0  0  0  0  0  0  0  0
    1.3749    0.4065    0.5120 C   0  0  0  0  0  0  0  0  0  0  0  0
    0.4550   -0.5736   -0.1967 C   0  0  0  0  0  0  0  0  0  0  0  0
   -3.2473    0.5156   -0.3967 C   0  0  0  0  0  0  0  0  0  0  0  0
    2.4253    0.9942   -0.4271 C   0  0  0  0  0  0  0  0  0  0  0  0
   -4.3810    0.5045    0.6162 C   0  0  0  0  0  0  0  0  0  0  0  0
    3.3171    2.0232    0.2525 C   0  0  0  0  0  0  0  0  0  0  0  0
   -1.0914   -0.6645   -1.6617 H   0  0  0  0  0  0  0  0  0  0  0  0
   -0.6237    0.9819   -1.2071 H   0  0  0  0  0  0  0  0  0  0  0  0
   -1.6598    0.6344    1.0643 H   0  0  0  0  0  0  0  0  0  0  0  0
   -2.0961   -1.0081    0.6162 H   0  0  0  0  0  0  0  0  0  0  0  0
    0.7477    1.2261    0.8862 H   0  0  0  0  0  0  0  0  0  0  0  0
    1.8342   -0.0229    1.4083 H   0  0  0  0  0  0  0  0  0  0  0  0
   -3.1059    1.5367   -0.7694 H   0  0  0  0  0  0  0  0  0  0  0  0
   -3.5275   -0.1072   -1.2543 H   0  0  0  0  0  0  0  0  0  0  0  0
    3.0525    0.1909   -0.8315 H   0  0  0  0  0  0  0  0  0  0  0  0
    1.9318    1.4617   -1.2876 H   0  0  0  0  0  0  0  0  0  0  0  0
   -4.5698   -0.5095    0.9829 H   0  0  0  0  0  0  0  0  0  0  0  0
   -5.3024    0.8770    0.1579 H   0  0  0  0  0  0  0  0  0  0  0  0
   -4.1463    1.1424    1.4743 H   0  0  0  0  0  0  0  0  0  0  0  0
    3.8580    1.5765    1.0927 H   0  0  0  0  0  0  0  0  0  0  0  0
    4.0525    2.4160   -0.4566 H   0  0  0  0  0  0  0  0  0  0  0  0
    2.7260    2.8631    0.6310 H   0  0  0  0  0  0  0  0  0  0  0  0
    2.1352   -2.9852    0.3544 H   0  0  0  0  0  0  0  0  0  0  0  0
  1  2  1  0  0  0  0
  1 27  1  0  0  0  0
  2  6  2  0  0  0  0
  3  4  1  0  0  0  0
  3  6  1  0  0  0  0
  3 11  1  0  0  0  0
  3 12  1  0  0  0  0
  4  7  1  0  0  0  0
  4 13  1  0  0  0  0
  4 14  1  0  0  0  0
  5  6  1  0  0  0  0
  5  8  1  0  0  0  0
  5 15  1  0  0  0  0
  5 16  1  0  0  0  0
  7  9  1  0  0  0  0
  7 17  1  0  0  0  0
  7 18  1  0  0  0  0
  8 10  1  0  0  0  0
  8 19  1  0  0  0  0
  8 20  1  0  0  0  0
  9 21  1  0  0  0  0
  9 22  1  0  0  0  0
  9 23  1  0  0  0  0
 10 24  1  0  0  0  0
 10 25  1  0  0  0  0
 10 26  1  0  0  0  0
M  END
> <PUBCHEM_COMPOUND_CID>
5463481

> <PUBCHEM_CONFORMER_RMSD>
0.6

> <PUBCHEM_CONFORMER_DIVERSEORDER>
1
29
78
88
87
54
95
4
68
70
107
84
92
76
14
21
103
93
79
99
89
75
105
74
81
83
61
35
91
86
39
71
73
101
24
102
62
77
98
67
16
85
37
50
94
6
56
11
53
5
59
97
45
36
90
60
100
2
43
42
58
51
104
31
82
69
38
40
44
22
66
72
41
55
80
49
57
19
46
64
17
96
106
28
47
10
8
27
65
63
26
7
34
25
15
12
13
52
48
32
3
33
9
23
30
20
18

> <PUBCHEM_MMFF94_PARTIAL_CHARGES>
6
1 -0.34
2 -0.51
27 0.4
3 0.06
5 0.06
6 0.33

> <PUBCHEM_EFFECTIVE_ROTOR_COUNT>
5

> <PUBCHEM_PHARMACOPHORE_FEATURES>
4
1 1 anion
1 10 hydrophobe
1 2 acceptor
1 9 hydrophobe

> <PUBCHEM_HEAVY_ATOM_COUNT>
10

> <PUBCHEM_ATOM_DEF_STEREO_COUNT>
0

> <PUBCHEM_ATOM_UDEF_STEREO_COUNT>
0

> <PUBCHEM_BOND_DEF_STEREO_COUNT>
1

> <PUBCHEM_BOND_UDEF_STEREO_COUNT>
0

> <PUBCHEM_ISOTOPIC_ATOM_COUNT>
0

> <PUBCHEM_COMPONENT_COUNT>
1

> <PUBCHEM_CACTVS_TAUTO_COUNT>
2

> <PUBCHEM_CONFORMER_ID>
00535DB900000001

> <PUBCHEM_MMFF94_ENERGY>
8.7437

> <PUBCHEM_FEATURE_SELFOVERLAP>
20.297

> <PUBCHEM_SHAPE_FINGERPRINT>
12346645 44 18342458174843727693
12932764 1 18336550417669302543
13380535 21 18411705417229762023
14123255 52 18340764956854336056
14325111 11 18339922726699497428
15775835 57 18201719591213788453
170605 34 18272937141114159085
18380122 1 17821720628912634717
201361 129 18342464703172938329
20645477 70 18337946776167775191
20715346 28 17749106648031993383
21499 59 18339636857981922581
21524375 3 18269268131147592972
276578 36 18412544336006233872
3248919 1 17489300833675883087
449060 50 18335425690373070261
449060 62 18342179968506083825
528862 383 18336255774017030338
81539 233 18259983794801370796

> <PUBCHEM_SHAPE_MULTIPOLES>
194.94
6.57
1.8
0.81
5.29
0.63
-0.03
-3.71
1.03
-2.12
0.19
0.15
-0.04
-0.14

> <PUBCHEM_SHAPE_SELFOVERLAP>
349.988

> <PUBCHEM_SHAPE_VOLUME>
127.1

> <PUBCHEM_COORDINATE_TYPE>
2
5
10

$$$$
