15558501
  -OEChem-02172602253D

 51 54  0     1  0  0  0  0  0999 V2000
   -1.4358    2.2967   -0.2492 O   0  0  0  0  0  0  0  0  0  0  0  0
   -0.7554    0.2878   -1.2542 O   0  0  0  0  0  0  0  0  0  0  0  0
   -5.3196    0.9211    0.1509 O   0  0  0  0  0  0  0  0  0  0  0  0
   -4.4131    3.1732    1.7166 O   0  0  0  0  0  0  0  0  0  0  0  0
   -3.3753    1.0007   -1.8470 O   0  0  0  0  0  0  0  0  0  0  0  0
    2.0490   -1.5030    0.3320 O   0  0  0  0  0  0  0  0  0  0  0  0
    1.3230    2.1330   -1.3583 O   0  0  0  0  0  0  0  0  0  0  0  0
    3.7904    2.8543   -0.8800 O   0  0  0  0  0  0  0  0  0  0  0  0
    6.5529   -0.3446    1.2835 O   0  0  0  0  0  0  0  0  0  0  0  0
   -2.9251   -5.3618    0.3231 O   0  0  0  0  0  0  0  0  0  0  0  0
   -3.9552    1.1419    0.4972 C   0  0  2  0  0  0  0  0  0  0  0  0
   -3.6998    2.6478    0.6001 C   0  0  2  0  0  0  0  0  0  0  0  0
   -3.0390    0.5048   -0.5473 C   0  0  2  0  0  0  0  0  0  0  0  0
   -2.2014    2.9258    0.7837 C   0  0  2  0  0  0  0  0  0  0  0  0
   -1.5850    0.8751   -0.2564 C   0  0  2  0  0  0  0  0  0  0  0  0
   -1.8986    4.4200    0.7342 C   0  0  0  0  0  0  0  0  0  0  0  0
    0.4988   -0.0063   -0.7647 C   0  0  0  0  0  0  0  0  0  0  0  0
    0.8085   -1.1873   -0.1993 C   0  0  0  0  0  0  0  0  0  0  0  0
    1.5453    1.0406   -0.8535 C   0  0  0  0  0  0  0  0  0  0  0  0
    2.8636    0.6945   -0.3002 C   0  0  0  0  0  0  0  0  0  0  0  0
    3.0467   -0.5650    0.2664 C   0  0  0  0  0  0  0  0  0  0  0  0
   -0.1703   -2.2806   -0.0628 C   0  0  0  0  0  0  0  0  0  0  0  0
    3.9172    1.6111   -0.3382 C   0  0  0  0  0  0  0  0  0  0  0  0
    4.2869   -0.9165    0.8000 C   0  0  0  0  0  0  0  0  0  0  0  0
   -0.3038   -3.2285   -1.0776 C   0  0  0  0  0  0  0  0  0  0  0  0
   -0.9630   -2.3686    1.0817 C   0  0  0  0  0  0  0  0  0  0  0  0
    5.1568    1.2570    0.1957 C   0  0  0  0  0  0  0  0  0  0  0  0
    5.3415   -0.0041    0.7638 C   0  0  0  0  0  0  0  0  0  0  0  0
   -1.2297   -4.2637   -0.9481 C   0  0  0  0  0  0  0  0  0  0  0  0
   -1.8887   -3.4040    1.2114 C   0  0  0  0  0  0  0  0  0  0  0  0
   -2.0221   -4.3514    0.1964 C   0  0  0  0  0  0  0  0  0  0  0  0
   -3.7894    0.6653    1.4715 H   0  0  0  0  0  0  0  0  0  0  0  0
   -4.0746    3.1519   -0.2996 H   0  0  0  0  0  0  0  0  0  0  0  0
   -3.1832   -0.5805   -0.5807 H   0  0  0  0  0  0  0  0  0  0  0  0
   -1.8612    2.5514    1.7584 H   0  0  0  0  0  0  0  0  0  0  0  0
   -1.3200    0.4981    0.7410 H   0  0  0  0  0  0  0  0  0  0  0  0
   -2.1884    4.8457   -0.2329 H   0  0  0  0  0  0  0  0  0  0  0  0
   -2.4180    4.9649    1.5279 H   0  0  0  0  0  0  0  0  0  0  0  0
   -0.8221    4.5928    0.8421 H   0  0  0  0  0  0  0  0  0  0  0  0
   -5.8664    1.2249    0.8949 H   0  0  0  0  0  0  0  0  0  0  0  0
   -5.3623    3.0954    1.5235 H   0  0  0  0  0  0  0  0  0  0  0  0
   -2.7538    0.6007   -2.4791 H   0  0  0  0  0  0  0  0  0  0  0  0
    4.4262   -1.9001    1.2419 H   0  0  0  0  0  0  0  0  0  0  0  0
    0.3073   -3.1733   -1.9753 H   0  0  0  0  0  0  0  0  0  0  0  0
   -0.8672   -1.6425    1.8852 H   0  0  0  0  0  0  0  0  0  0  0  0
    5.9822    1.9646    0.1702 H   0  0  0  0  0  0  0  0  0  0  0  0
   -1.3238   -4.9955   -1.7459 H   0  0  0  0  0  0  0  0  0  0  0  0
   -2.5023   -3.4677    2.1058 H   0  0  0  0  0  0  0  0  0  0  0  0
    2.8922    2.9880   -1.2190 H   0  0  0  0  0  0  0  0  0  0  0  0
    6.5024   -1.2506    1.6339 H   0  0  0  0  0  0  0  0  0  0  0  0
   -2.8833   -5.9230   -0.4702 H   0  0  0  0  0  0  0  0  0  0  0  0
  1 14  1  0  0  0  0
  1 15  1  0  0  0  0
  2 15  1  0  0  0  0
  2 17  1  0  0  0  0
  3 11  1  0  0  0  0
  3 40  1  0  0  0  0
  4 12  1  0  0  0  0
  4 41  1  0  0  0  0
  5 13  1  0  0  0  0
  5 42  1  0  0  0  0
  6 18  1  0  0  0  0
  6 21  1  0  0  0  0
  7 19  2  0  0  0  0
  8 23  1  0  0  0  0
  8 49  1  0  0  0  0
  9 28  1  0  0  0  0
  9 50  1  0  0  0  0
 10 31  1  0  0  0  0
 10 51  1  0  0  0  0
 11 12  1  0  0  0  0
 11 13  1  0  0  0  0
 11 32  1  0  0  0  0
 12 14  1  0  0  0  0
 12 33  1  0  0  0  0
 13 15  1  0  0  0  0
 13 34  1  0  0  0  0
 14 16  1  0  0  0  0
 14 35  1  0  0  0  0
 15 36  1  0  0  0  0
 16 37  1  0  0  0  0
 16 38  1  0  0  0  0
 16 39  1  0  0  0  0
 17 18  2  0  0  0  0
 17 19  1  0  0  0  0
 18 22  1  0  0  0  0
 19 20  1  0  0  0  0
 20 21  1  0  0  0  0
 20 23  2  0  0  0  0
 21 24  2  0  0  0  0
 22 25  2  0  0  0  0
 22 26  1  0  0  0  0
 23 27  1  0  0  0  0
 24 28  1  0  0  0  0
 24 43  1  0  0  0  0
 25 29  1  0  0  0  0
 25 44  1  0  0  0  0
 26 30  2  0  0  0  0
 26 45  1  0  0  0  0
 27 28  2  0  0  0  0
 27 46  1  0  0  0  0
 29 31  2  0  0  0  0
 29 47  1  0  0  0  0
 30 31  1  0  0  0  0
 30 48  1  0  0  0  0
M  END
> <PUBCHEM_COMPOUND_CID>
15558501

> <PUBCHEM_CONFORMER_RMSD>
0.8

> <PUBCHEM_CONFORMER_DIVERSEORDER>
1
9
12
8
11
5
10
4
6
2
7
3

> <PUBCHEM_MMFF94_PARTIAL_CHARGES>
42
1 -0.56
10 -0.53
11 0.28
12 0.28
13 0.28
14 0.28
15 0.56
17 0.09
18 0.05
19 0.47
2 -0.36
20 0.09
21 0.08
22 0.03
23 0.08
24 -0.15
25 -0.15
26 -0.15
27 -0.15
28 0.08
29 -0.15
3 -0.68
30 -0.15
31 0.08
4 -0.68
40 0.4
41 0.4
42 0.4
43 0.15
44 0.15
45 0.15
46 0.15
47 0.15
48 0.15
49 0.45
5 -0.68
50 0.45
51 0.45
6 -0.16
7 -0.57
8 -0.53
9 -0.53

> <PUBCHEM_EFFECTIVE_ROTOR_COUNT>
4.2

> <PUBCHEM_PHARMACOPHORE_FEATURES>
17
1 1 acceptor
1 10 donor
1 2 acceptor
1 3 acceptor
1 3 donor
1 4 acceptor
1 4 donor
1 5 acceptor
1 5 donor
1 6 acceptor
1 7 acceptor
1 8 donor
1 9 donor
6 1 11 12 13 14 15 rings
6 20 21 23 24 27 28 rings
6 22 25 26 29 30 31 rings
6 6 17 18 19 20 21 rings

> <PUBCHEM_HEAVY_ATOM_COUNT>
31

> <PUBCHEM_ATOM_DEF_STEREO_COUNT>
5

> <PUBCHEM_ATOM_UDEF_STEREO_COUNT>
0

> <PUBCHEM_BOND_DEF_STEREO_COUNT>
0

> <PUBCHEM_BOND_UDEF_STEREO_COUNT>
0

> <PUBCHEM_ISOTOPIC_ATOM_COUNT>
0

> <PUBCHEM_COMPONENT_COUNT>
1

> <PUBCHEM_CACTVS_TAUTO_COUNT>
57

> <PUBCHEM_CONFORMER_ID>
00ED676500000001

> <PUBCHEM_MMFF94_ENERGY>
99.1243

> <PUBCHEM_FEATURE_SELFOVERLAP>
86.373

> <PUBCHEM_SHAPE_FINGERPRINT>
10006869 2 17981329198496623503
10074138 170 18339624741995485426
1100329 8 18336542823592356812
11552529 35 18336542836899154466
11578080 2 17843112873298055696
12107183 9 18335693898412393890
12160290 23 18043271182638494559
12422481 6 18045815427144682235
12788726 201 17976271453915559582
13004483 165 17979915230712352250
13140716 1 18265046006829209892
13540713 5 18042124427029546732
13583140 156 16805592638724696476
13692114 37 18340496582118643903
138480 1 17113541415875028147
14790565 3 18121791530452888260
14866123 147 18334002900725934690
15042514 8 18337389456209648910
15131766 46 15793161370360255278
15347590 135 18130241350543348977
15475509 84 18047481307308752443
15775530 1 18199773421558263086
17138139 8 17839419532568864743
17818456 19 18337391638374567750
18603816 31 14851870466443470256
19319366 153 18056480539541493417
20028762 73 18270115708784388503
20739085 24 17902238806402840388
20775438 99 15750588502981789327
21033650 10 17560257833638887848
21344244 78 17762607795964874762
21756936 100 18272922800751075104
23559900 14 17619348702392733145
23598288 3 18268145551345870798
25147074 1 17968940928768560508
352729 6 18411420643670494214
392239 28 18339092561641310257
474 4 18267584606904487553
5104073 3 18190724501755437248
5171179 24 17479729863986425223
5486654 2 18411704292164510909
59755656 520 18339640040890324878
6700243 42 17553800582221372822
79837 15 18411703162166105955
9981440 41 18337958866221054537

> <PUBCHEM_SHAPE_MULTIPOLES>
579.27
9.99
6.24
1.25
10.76
5.24
0.07
-5.86
-3.28
-8.42
-0.93
-0.31
-0.11
-1.32

> <PUBCHEM_SHAPE_SELFOVERLAP>
1275.753

> <PUBCHEM_SHAPE_VOLUME>
308.1

> <PUBCHEM_COORDINATE_TYPE>
2
5
10

$$$$
