5274488
  -OEChem-02172602453D

 44 47  0     1  0  0  0  0  0999 V2000
   -0.8878    2.6660    1.0834 O   0  0  0  0  0  0  0  0  0  0  0  0
   -6.7453   -0.1651   -0.5885 O   0  5  0  0  0  0  0  0  0  0  0  0
   -6.0955   -2.2467   -0.3130 O   0  0  0  0  0  0  0  0  0  0  0  0
    2.9563   -0.4286   -0.8320 N   0  0  2  0  0  0  0  0  0  0  0  0
   -0.4708    0.6961   -0.1153 N   0  0  0  0  0  0  0  0  0  0  0  0
   -5.8474   -1.0227   -0.4180 N   0  3  0  0  0  0  0  0  0  0  0  0
    1.8411    4.8949    0.8010 N   0  0  0  0  0  0  0  0  0  0  0  0
    0.5906   -0.2451   -0.4933 C   0  0  1  0  0  0  0  0  0  0  0  0
    1.8092    0.4117   -1.1998 C   0  0  1  0  0  0  0  0  0  0  0  0
    1.2769   -0.9467    0.6582 C   0  0  0  0  0  0  0  0  0  0  0  0
    2.6446   -1.0610    0.3620 C   0  0  0  0  0  0  0  0  0  0  0  0
    2.0528    1.8152   -0.7299 C   0  0  0  0  0  0  0  0  0  0  0  0
    4.2847   -0.2782   -1.3690 C   0  0  0  0  0  0  0  0  0  0  0  0
   -0.1475    1.9664    0.3891 C   0  0  0  0  0  0  0  0  0  0  0  0
    0.7405   -1.4867    1.8164 C   0  0  0  0  0  0  0  0  0  0  0  0
    1.2002    2.5114    0.0309 C   0  0  0  0  0  0  0  0  0  0  0  0
    3.4907   -1.7364    1.2284 C   0  0  0  0  0  0  0  0  0  0  0  0
   -1.8522    0.2545   -0.1920 C   0  0  0  0  0  0  0  0  0  0  0  0
    1.5954   -2.1543    2.6937 C   0  0  0  0  0  0  0  0  0  0  0  0
    2.9600   -2.2814    2.4004 C   0  0  0  0  0  0  0  0  0  0  0  0
    4.5969   -1.4534   -2.2344 C   0  0  0  0  0  0  0  0  0  0  0  0
   -2.8641    1.1893   -0.3795 C   0  0  0  0  0  0  0  0  0  0  0  0
   -2.1497   -1.0988   -0.0779 C   0  0  0  0  0  0  0  0  0  0  0  0
    1.5535    3.8254    0.4553 C   0  0  0  0  0  0  0  0  0  0  0  0
   -4.1908    0.7653   -0.4539 C   0  0  0  0  0  0  0  0  0  0  0  0
   -3.4764   -1.5231   -0.1525 C   0  0  0  0  0  0  0  0  0  0  0  0
   -4.4971   -0.5910   -0.3405 C   0  0  0  0  0  0  0  0  0  0  0  0
    5.6312   -2.2769   -2.0291 C   0  0  0  0  0  0  0  0  0  0  0  0
    0.1981   -1.0044   -1.1829 H   0  0  0  0  0  0  0  0  0  0  0  0
    1.6660    0.4218   -2.2871 H   0  0  0  0  0  0  0  0  0  0  0  0
    2.9964    2.2740   -1.0199 H   0  0  0  0  0  0  0  0  0  0  0  0
    4.3409    0.6137   -2.0045 H   0  0  0  0  0  0  0  0  0  0  0  0
    5.0270   -0.1311   -0.5758 H   0  0  0  0  0  0  0  0  0  0  0  0
   -0.3107   -1.3971    2.0612 H   0  0  0  0  0  0  0  0  0  0  0  0
    4.5507   -1.8434    1.0241 H   0  0  0  0  0  0  0  0  0  0  0  0
    1.2007   -2.5829    3.6108 H   0  0  0  0  0  0  0  0  0  0  0  0
    3.6112   -2.8080    3.0928 H   0  0  0  0  0  0  0  0  0  0  0  0
    3.9502   -1.6369   -3.0891 H   0  0  0  0  0  0  0  0  0  0  0  0
   -2.6621    2.2474   -0.5138 H   0  0  0  0  0  0  0  0  0  0  0  0
   -1.3979   -1.8662    0.0605 H   0  0  0  0  0  0  0  0  0  0  0  0
   -4.9589    1.5185   -0.6103 H   0  0  0  0  0  0  0  0  0  0  0  0
   -3.6776   -2.5876   -0.0619 H   0  0  0  0  0  0  0  0  0  0  0  0
    5.8103   -3.1112   -2.6984 H   0  0  0  0  0  0  0  0  0  0  0  0
    6.3118   -2.1362   -1.1967 H   0  0  0  0  0  0  0  0  0  0  0  0
  1 14  2  0  0  0  0
  2  6  1  0  0  0  0
  3  6  2  0  0  0  0
  4  9  1  0  0  0  0
  4 11  1  0  0  0  0
  4 13  1  0  0  0  0
  5  8  1  0  0  0  0
  5 14  1  0  0  0  0
  5 18  1  0  0  0  0
  6 27  1  0  0  0  0
  7 24  3  0  0  0  0
  8  9  1  0  0  0  0
  8 10  1  0  0  0  0
  8 29  1  0  0  0  0
  9 12  1  0  0  0  0
  9 30  1  0  0  0  0
 10 11  1  0  0  0  0
 10 15  2  0  0  0  0
 11 17  2  0  0  0  0
 12 16  2  0  0  0  0
 12 31  1  0  0  0  0
 13 21  1  0  0  0  0
 13 32  1  0  0  0  0
 13 33  1  0  0  0  0
 14 16  1  0  0  0  0
 15 19  1  0  0  0  0
 15 34  1  0  0  0  0
 16 24  1  0  0  0  0
 17 20  1  0  0  0  0
 17 35  1  0  0  0  0
 18 22  2  0  0  0  0
 18 23  1  0  0  0  0
 19 20  2  0  0  0  0
 19 36  1  0  0  0  0
 20 37  1  0  0  0  0
 21 28  2  0  0  0  0
 21 38  1  0  0  0  0
 22 25  1  0  0  0  0
 22 39  1  0  0  0  0
 23 26  2  0  0  0  0
 23 40  1  0  0  0  0
 25 27  2  0  0  0  0
 25 41  1  0  0  0  0
 26 27  1  0  0  0  0
 26 42  1  0  0  0  0
 28 43  1  0  0  0  0
 28 44  1  0  0  0  0
M  CHG  2   2  -1   6   1
M  END
> <PUBCHEM_COMPOUND_CID>
5274488

> <PUBCHEM_CONFORMER_RMSD>
0.8

> <PUBCHEM_CONFORMER_DIVERSEORDER>
1
12
3
10
11
8
5
6
4
2
7
14
9
13

> <PUBCHEM_MMFF94_PARTIAL_CHARGES>
40
1 -0.57
10 -0.14
11 0.1
12 -0.29
13 0.51
14 0.62
15 -0.15
16 0.08
17 -0.15
18 0.12
19 -0.15
2 -0.52
20 -0.15
21 -0.29
22 -0.15
23 -0.15
24 0.49
25 -0.15
26 -0.15
27 0.13
28 -0.3
3 -0.52
31 0.15
34 0.15
35 0.15
36 0.15
37 0.15
38 0.15
39 0.15
4 -0.84
40 0.15
41 0.15
42 0.15
43 0.15
44 0.15
5 -0.48
6 0.91
7 -0.56
8 0.44
9 0.51

> <PUBCHEM_EFFECTIVE_ROTOR_COUNT>
4.4

> <PUBCHEM_PHARMACOPHORE_FEATURES>
11
1 1 acceptor
1 2 acceptor
1 2 anion
1 28 hydrophobe
1 3 acceptor
1 4 cation
1 7 acceptor
5 4 8 9 10 11 rings
6 10 11 15 17 19 20 rings
6 18 22 23 25 26 27 rings
6 5 8 9 12 14 16 rings

> <PUBCHEM_HEAVY_ATOM_COUNT>
28

> <PUBCHEM_ATOM_DEF_STEREO_COUNT>
0

> <PUBCHEM_ATOM_UDEF_STEREO_COUNT>
2

> <PUBCHEM_BOND_DEF_STEREO_COUNT>
0

> <PUBCHEM_BOND_UDEF_STEREO_COUNT>
0

> <PUBCHEM_ISOTOPIC_ATOM_COUNT>
0

> <PUBCHEM_COMPONENT_COUNT>
1

> <PUBCHEM_CACTVS_TAUTO_COUNT>
1

> <PUBCHEM_CONFORMER_ID>
00507B7800000001

> <PUBCHEM_MMFF94_ENERGY>
101.9775

> <PUBCHEM_FEATURE_SELFOVERLAP>
56.229

> <PUBCHEM_SHAPE_FINGERPRINT>
10169797 241 18044664332564341059
10366900 7 17822015319814723795
10369192 42 16915064479758988466
10693767 8 18041843892408963910
11578080 2 17678710411410764492
12160290 23 17410475603350471192
12166972 35 17846785113338542371
12293681 160 18115041744544351930
12553582 1 18339925892222328321
12741549 16 16845008992862351106
12788726 201 18047479915517769888
13009979 54 17827906339744658394
133893 2 17693045976978059780
13533116 47 18040988562767143099
13911987 19 16516842224065365982
14784336 7 18115592531393393362
14787075 74 18259980488214668664
14931854 50 18041002812535130327
15664445 248 18342459227400820074
15927050 60 17832415776596028520
17138139 8 18186524306369435850
17492 54 17385735681413659246
17909252 39 18059028249743110940
17980427 26 18047170119605421676
18222031 100 18202559571100637199
18681886 176 18272369788982971710
19319366 153 17749387070431422370
20369508 70 18335973233956846093
20600515 1 18128799885549240120
20775438 99 17981594176525991487
21033648 29 16916206781449653403
21421861 104 18263346123034731673
22393880 68 18260829276209055541
23558518 356 17470158623429470902
23559900 14 18272087232043514207
239999 70 18341049734802789613
25147074 1 17679871405869298386
266924 1 17825677642876061982
3004659 81 18409451380038523439
3411729 13 18197768010853677393
376196 1 17693086783536445424
4058900 60 17973731568949741401
5895379 119 17774735164574913153
6086070 43 18338223874720809637
621550 5 17202769172955852208
70251023 43 18342186578397026657
7970288 3 18272376325733890359
9841814 1 18411129251598433721

> <PUBCHEM_SHAPE_MULTIPOLES>
538.69
11.14
3.91
1.92
14.94
5.36
-0.54
-8.91
6.56
-2.46
-1.95
-3.32
-1.52
-0.15

> <PUBCHEM_SHAPE_SELFOVERLAP>
1187.847

> <PUBCHEM_SHAPE_VOLUME>
288.1

> <PUBCHEM_COORDINATE_TYPE>
2
5
10

$$$$
