5318215
  -OEChem-02172602413D

 49 50  0     1  0  0  0  0  0999 V2000
   -1.5892   -2.4620   -1.0106 O   0  0  0  0  0  0  0  0  0  0  0  0
    1.8528   -0.5874    0.1990 O   0  0  0  0  0  0  0  0  0  0  0  0
    0.5039    1.2126    1.9888 O   0  0  0  0  0  0  0  0  0  0  0  0
   -0.1642   -4.2549   -1.2657 O   0  0  0  0  0  0  0  0  0  0  0  0
    2.6107    0.8980   -1.3953 O   0  0  0  0  0  0  0  0  0  0  0  0
    0.2574    2.2314   -2.0563 O   0  0  0  0  0  0  0  0  0  0  0  0
   -0.4574   -1.2587    0.6987 C   0  0  1  0  0  0  0  0  0  0  0  0
    0.4770   -0.2020    0.0094 C   0  0  1  0  0  0  0  0  0  0  0  0
   -1.8421   -1.5323    0.0641 C   0  0  1  0  0  0  0  0  0  0  0  0
    0.4323    1.2581    0.5617 C   0  0  1  0  0  0  0  0  0  0  0  0
    0.0677   -2.6567    0.5335 C   0  0  0  0  0  0  0  0  0  0  0  0
   -2.5782   -0.3547   -0.4846 C   0  0  0  0  0  0  0  0  0  0  0  0
   -0.5350   -3.2596   -0.6719 C   0  0  0  0  0  0  0  0  0  0  0  0
   -0.7419    2.0753    0.0783 C   0  0  0  0  0  0  0  0  0  0  0  0
   -3.5913    0.3264    0.0909 C   0  0  0  0  0  0  0  0  0  0  0  0
   -3.9235    1.7132   -0.4423 C   0  0  0  0  0  0  0  0  0  0  0  0
   -3.1728    2.8324    0.3269 C   0  0  0  0  0  0  0  0  0  0  0  0
   -1.8176    2.3850    0.8250 C   0  0  0  0  0  0  0  0  0  0  0  0
    0.8814   -3.3432    1.3391 C   0  0  0  0  0  0  0  0  0  0  0  0
   -4.3218   -0.0727    1.3410 C   0  0  0  0  0  0  0  0  0  0  0  0
    2.7733    0.2356   -0.3798 C   0  0  0  0  0  0  0  0  0  0  0  0
   -0.6943    2.4859   -1.3360 C   0  0  0  0  0  0  0  0  0  0  0  0
    4.0411    0.1975    0.4428 C   0  0  0  0  0  0  0  0  0  0  0  0
    5.1368    1.0769   -0.1545 C   0  0  0  0  0  0  0  0  0  0  0  0
    6.3950    1.0560    0.6980 C   0  0  0  0  0  0  0  0  0  0  0  0
   -0.5790   -1.0173    1.7606 H   0  0  0  0  0  0  0  0  0  0  0  0
    0.2896   -0.2201   -1.0717 H   0  0  0  0  0  0  0  0  0  0  0  0
   -2.4747   -2.0739    0.7781 H   0  0  0  0  0  0  0  0  0  0  0  0
    1.3037    1.8621    0.2981 H   0  0  0  0  0  0  0  0  0  0  0  0
   -2.1500    0.0507   -1.4002 H   0  0  0  0  0  0  0  0  0  0  0  0
   -3.6623    1.7782   -1.5067 H   0  0  0  0  0  0  0  0  0  0  0  0
   -5.0050    1.8895   -0.3974 H   0  0  0  0  0  0  0  0  0  0  0  0
   -3.7712    3.1106    1.2045 H   0  0  0  0  0  0  0  0  0  0  0  0
   -3.1025    3.7420   -0.2793 H   0  0  0  0  0  0  0  0  0  0  0  0
   -1.8172    2.0884    1.8731 H   0  0  0  0  0  0  0  0  0  0  0  0
    1.2838   -2.8862    2.2369 H   0  0  0  0  0  0  0  0  0  0  0  0
    1.1654   -4.3682    1.1267 H   0  0  0  0  0  0  0  0  0  0  0  0
    1.3062    0.7167    2.2255 H   0  0  0  0  0  0  0  0  0  0  0  0
   -4.0429   -1.0609    1.7117 H   0  0  0  0  0  0  0  0  0  0  0  0
   -5.3998   -0.0951    1.1484 H   0  0  0  0  0  0  0  0  0  0  0  0
   -4.1329    0.6456    2.1449 H   0  0  0  0  0  0  0  0  0  0  0  0
   -1.5506    3.0583   -1.7212 H   0  0  0  0  0  0  0  0  0  0  0  0
    3.8005    0.5422    1.4547 H   0  0  0  0  0  0  0  0  0  0  0  0
    4.3872   -0.8410    0.4921 H   0  0  0  0  0  0  0  0  0  0  0  0
    5.3788    0.7356   -1.1682 H   0  0  0  0  0  0  0  0  0  0  0  0
    4.7797    2.1098   -0.2453 H   0  0  0  0  0  0  0  0  0  0  0  0
    7.1662    1.6913    0.2513 H   0  0  0  0  0  0  0  0  0  0  0  0
    6.1912    1.4279    1.7072 H   0  0  0  0  0  0  0  0  0  0  0  0
    6.7964    0.0409    0.7800 H   0  0  0  0  0  0  0  0  0  0  0  0
  1  9  1  0  0  0  0
  1 13  1  0  0  0  0
  2  8  1  0  0  0  0
  2 21  1  0  0  0  0
  3 10  1  0  0  0  0
  3 38  1  0  0  0  0
  4 13  2  0  0  0  0
  5 21  2  0  0  0  0
  6 22  2  0  0  0  0
  7  8  1  0  0  0  0
  7  9  1  0  0  0  0
  7 11  1  0  0  0  0
  7 26  1  0  0  0  0
  8 10  1  0  0  0  0
  8 27  1  0  0  0  0
  9 12  1  0  0  0  0
  9 28  1  0  0  0  0
 10 14  1  0  0  0  0
 10 29  1  0  0  0  0
 11 13  1  0  0  0  0
 11 19  2  0  0  0  0
 12 15  2  0  0  0  0
 12 30  1  0  0  0  0
 14 18  2  0  0  0  0
 14 22  1  0  0  0  0
 15 16  1  0  0  0  0
 15 20  1  0  0  0  0
 16 17  1  0  0  0  0
 16 31  1  0  0  0  0
 16 32  1  0  0  0  0
 17 18  1  0  0  0  0
 17 33  1  0  0  0  0
 17 34  1  0  0  0  0
 18 35  1  0  0  0  0
 19 36  1  0  0  0  0
 19 37  1  0  0  0  0
 20 39  1  0  0  0  0
 20 40  1  0  0  0  0
 20 41  1  0  0  0  0
 21 23  1  0  0  0  0
 22 42  1  0  0  0  0
 23 24  1  0  0  0  0
 23 43  1  0  0  0  0
 23 44  1  0  0  0  0
 24 25  1  0  0  0  0
 24 45  1  0  0  0  0
 24 46  1  0  0  0  0
 25 47  1  0  0  0  0
 25 48  1  0  0  0  0
 25 49  1  0  0  0  0
M  END
> <PUBCHEM_COMPOUND_CID>
5318215

> <PUBCHEM_CONFORMER_RMSD>
0.8

> <PUBCHEM_CONFORMER_DIVERSEORDER>
1
56
105
113
69
92
48
30
79
75
66
89
82
29
54
72
107
15
93
23
94
26
81
111
110
74
6
50
47
45
102
85
46
76
22
78
112
97
24
25
108
59
41
83
88
57
19
71
100
42
91
5
109
52
27
65
99
13
44
34
68
43
40
64
36
61
77
35
17
28
58
63
62
33
95
70
37
2
98
84
55
90
31
96
87
103
38
60
32
14
86
10
104
3
39
18
16
49
67
106
80
20
11
8
51
53
12
21
73
9
7
4
101

> <PUBCHEM_MMFF94_PARTIAL_CHARGES>
29
1 -0.43
10 0.42
11 -0.12
12 -0.29
13 0.71
14 -0.12
15 -0.28
16 0.14
17 0.14
18 -0.29
19 -0.3
2 -0.43
20 0.14
21 0.66
22 0.5
23 0.06
3 -0.68
30 0.15
35 0.15
36 0.15
37 0.15
38 0.4
4 -0.57
42 0.06
5 -0.57
6 -0.57
7 0.14
8 0.28
9 0.42

> <PUBCHEM_EFFECTIVE_ROTOR_COUNT>
6

> <PUBCHEM_PHARMACOPHORE_FEATURES>
7
1 25 hydrophobe
1 3 acceptor
1 3 donor
1 4 acceptor
1 5 acceptor
1 6 acceptor
5 1 7 9 11 13 rings

> <PUBCHEM_HEAVY_ATOM_COUNT>
25

> <PUBCHEM_ATOM_DEF_STEREO_COUNT>
2

> <PUBCHEM_ATOM_UDEF_STEREO_COUNT>
2

> <PUBCHEM_BOND_DEF_STEREO_COUNT>
2

> <PUBCHEM_BOND_UDEF_STEREO_COUNT>
0

> <PUBCHEM_ISOTOPIC_ATOM_COUNT>
0

> <PUBCHEM_COMPONENT_COUNT>
1

> <PUBCHEM_CACTVS_TAUTO_COUNT>
1

> <PUBCHEM_CONFORMER_ID>
0051264700000001

> <PUBCHEM_MMFF94_ENERGY>
68.578

> <PUBCHEM_FEATURE_SELFOVERLAP>
35.526

> <PUBCHEM_SHAPE_FINGERPRINT>
10382601 240 18117568322905779083
10411042 1 17691401232390685494
1100329 8 18265337398542736577
11370993 70 18340486673238624028
11578080 2 16085030833114710399
12422481 6 17972589992421720570
12788726 201 18048050845551776982
13140716 1 18193006030863051713
14223421 5 17975981960224019671
14787075 74 18060132158795464344
14790565 3 18412833464504747521
16945 1 18343294856211393913
19591789 44 18412262800710064163
20197701 30 18336546023717233450
20600515 1 18268157615935190508
20905425 154 18268436728975072919
23402539 116 18337946891772780180
23419403 2 16843594118459483738
23557571 272 18199754824644431892
23559900 14 17764866901248664250
2748010 2 16972223377033354207
3178227 256 18191599747160284715
350125 39 18192431871013598842
394222 165 18190174594605201386
484989 97 18047460417200092431
57527585 103 16520462034854222792
59755656 520 18411978023631535708
70251023 43 17402042796016413378
7226269 152 18272933843117567208
7364860 26 17836928897490855407
81228 2 18337117885912436234
9981440 41 18335141964295505075

> <PUBCHEM_SHAPE_MULTIPOLES>
479.27
8.06
4.32
1.37
11.27
3.98
0.1
-5.72
-1.67
-1.53
0.85
-0.08
-0.11
-0.32

> <PUBCHEM_SHAPE_SELFOVERLAP>
991.518

> <PUBCHEM_SHAPE_VOLUME>
270.4

> <PUBCHEM_COORDINATE_TYPE>
2
5
10

$$$$
