5318769
  -OEChem-02172602383D

 30 30  0     1  0  0  0  0  0999 V2000
   -2.6910   -1.1966   -0.4089 O   0  0  0  0  0  0  0  0  0  0  0  0
   -0.9894   -2.6019   -0.9795 O   0  0  0  0  0  0  0  0  0  0  0  0
   -2.6073    2.0632    0.9991 O   0  0  0  0  0  0  0  0  0  0  0  0
   -2.1863    1.7456   -1.2151 O   0  0  0  0  0  0  0  0  0  0  0  0
    0.3414   -1.8111    1.2979 N   0  0  0  0  0  0  0  0  0  0  0  0
    0.1571    0.2367    0.0538 C   0  0  1  0  0  0  0  0  0  0  0  0
    1.5898    0.0069    0.5534 C   0  0  1  0  0  0  0  0  0  0  0  0
   -0.6437   -0.9020    0.7023 C   0  0  1  0  0  0  0  0  0  0  0  0
    1.6387   -1.5067    0.6981 C   0  0  0  0  0  0  0  0  0  0  0  0
   -0.3812    1.6161    0.4177 C   0  0  0  0  0  0  0  0  0  0  0  0
    2.6487    0.5373   -0.3548 C   0  0  0  0  0  0  0  0  0  0  0  0
   -1.4252   -1.6724   -0.3165 C   0  0  0  0  0  0  0  0  0  0  0  0
    3.5991    1.5301    0.2460 C   0  0  0  0  0  0  0  0  0  0  0  0
   -1.7958    1.8066   -0.0590 C   0  0  0  0  0  0  0  0  0  0  0  0
    2.7451    0.1481   -1.6347 C   0  0  0  0  0  0  0  0  0  0  0  0
    0.1045    0.1334   -1.0388 H   0  0  0  0  0  0  0  0  0  0  0  0
    1.7002    0.4543    1.5525 H   0  0  0  0  0  0  0  0  0  0  0  0
   -1.3129   -0.5673    1.5022 H   0  0  0  0  0  0  0  0  0  0  0  0
    1.7382   -2.0334   -0.2578 H   0  0  0  0  0  0  0  0  0  0  0  0
    2.4552   -1.8292    1.3522 H   0  0  0  0  0  0  0  0  0  0  0  0
    0.0942   -2.7916    1.1817 H   0  0  0  0  0  0  0  0  0  0  0  0
   -0.3341    1.7699    1.5030 H   0  0  0  0  0  0  0  0  0  0  0  0
    0.2265    2.4084   -0.0342 H   0  0  0  0  0  0  0  0  0  0  0  0
    3.0539    2.4088    0.6058 H   0  0  0  0  0  0  0  0  0  0  0  0
    4.1344    1.0817    1.0893 H   0  0  0  0  0  0  0  0  0  0  0  0
    4.3462    1.8751   -0.4766 H   0  0  0  0  0  0  0  0  0  0  0  0
    3.5216    0.5442   -2.2815 H   0  0  0  0  0  0  0  0  0  0  0  0
    2.0641   -0.5702   -2.0775 H   0  0  0  0  0  0  0  0  0  0  0  0
   -3.2193   -1.6873   -1.0739 H   0  0  0  0  0  0  0  0  0  0  0  0
   -3.5396    2.1911    0.7221 H   0  0  0  0  0  0  0  0  0  0  0  0
  1 12  1  0  0  0  0
  1 29  1  0  0  0  0
  2 12  2  0  0  0  0
  3 14  1  0  0  0  0
  3 30  1  0  0  0  0
  4 14  2  0  0  0  0
  5  8  1  0  0  0  0
  5  9  1  0  0  0  0
  5 21  1  0  0  0  0
  6  7  1  0  0  0  0
  6  8  1  0  0  0  0
  6 10  1  0  0  0  0
  6 16  1  0  0  0  0
  7  9  1  0  0  0  0
  7 11  1  0  0  0  0
  7 17  1  0  0  0  0
  8 12  1  0  0  0  0
  8 18  1  0  0  0  0
  9 19  1  0  0  0  0
  9 20  1  0  0  0  0
 10 14  1  0  0  0  0
 10 22  1  0  0  0  0
 10 23  1  0  0  0  0
 11 13  1  0  0  0  0
 11 15  2  0  0  0  0
 13 24  1  0  0  0  0
 13 25  1  0  0  0  0
 13 26  1  0  0  0  0
 15 27  1  0  0  0  0
 15 28  1  0  0  0  0
M  END
> <PUBCHEM_COMPOUND_CID>
5318769

> <PUBCHEM_CONFORMER_RMSD>
0.6

> <PUBCHEM_CONFORMER_DIVERSEORDER>
1
60
54
50
27
55
45
51
64
37
57
16
26
29
48
47
68
58
67
43
52
61
5
32
49
59
23
18
44
65
66
62
25
4
36
35
19
46
42
28
2
17
31
33
38
40
63
10
6
41
30
34
7
12
15
21
11
13
8
14
3
24
20
9
56
39
53
22

> <PUBCHEM_MMFF94_PARTIAL_CHARGES>
19
1 -0.65
10 0.06
11 -0.28
12 0.66
13 0.14
14 0.66
15 -0.3
2 -0.57
21 0.36
27 0.15
28 0.15
29 0.5
3 -0.65
30 0.5
4 -0.57
5 -0.9
7 0.14
8 0.33
9 0.27

> <PUBCHEM_EFFECTIVE_ROTOR_COUNT>
5

> <PUBCHEM_PHARMACOPHORE_FEATURES>
9
1 1 acceptor
1 2 acceptor
1 3 acceptor
1 4 acceptor
1 5 cation
1 5 donor
3 1 2 12 anion
3 3 4 14 anion
5 5 6 7 8 9 rings

> <PUBCHEM_HEAVY_ATOM_COUNT>
15

> <PUBCHEM_ATOM_DEF_STEREO_COUNT>
1

> <PUBCHEM_ATOM_UDEF_STEREO_COUNT>
2

> <PUBCHEM_BOND_DEF_STEREO_COUNT>
0

> <PUBCHEM_BOND_UDEF_STEREO_COUNT>
0

> <PUBCHEM_ISOTOPIC_ATOM_COUNT>
0

> <PUBCHEM_COMPONENT_COUNT>
1

> <PUBCHEM_CACTVS_TAUTO_COUNT>
1

> <PUBCHEM_CONFORMER_ID>
0051287100000001

> <PUBCHEM_MMFF94_ENERGY>
26.9984

> <PUBCHEM_FEATURE_SELFOVERLAP>
45.784

> <PUBCHEM_SHAPE_FINGERPRINT>
1 1 18047755888456322532
10353120 184 18263931118733328015
11206711 2 18335986479451487740
12138202 97 18342177760913778628
12423570 1 11023289635693132930
12532896 13 18335712628168295576
13380536 167 18191004751537774970
14614273 12 18187070784864391940
14617773 55 18337653274496541595
14817 1 18048912785274087599
15219459 52 17977659805929983638
15490181 7 18263082119736995760
15490181 8 17909546164733186393
15775835 57 18262525783933022468
16945 1 18340486789017903866
18186145 218 18199189486172865812
19837323 101 18343305850942523599
20511035 2 18043256734315295522
20525323 117 18336267954660293912
21501502 16 18410289199261455090
21524375 3 18262809440853151496
22802520 49 18058744515249495214
2334 1 18408600344652523730
23402539 116 18122614218315800846
23557571 272 18126569161361446782
23559900 14 18272092648704149566
2748010 2 18337676308421701344
3060560 45 17763454020111393421
353137 74 18261664986518596559
53812653 217 18411429426789125234
53812653 8 18334851753223366963
6333449 129 18341895207715796416
81228 2 18264781041247953368

> <PUBCHEM_SHAPE_MULTIPOLES>
280.23
4.44
2.64
1.19
2.21
0.18
0.23
-1.91
0.79
-1.78
-0.07
0.2
0.13
-0.38

> <PUBCHEM_SHAPE_SELFOVERLAP>
569.103

> <PUBCHEM_SHAPE_VOLUME>
164.3

> <PUBCHEM_COORDINATE_TYPE>
2
5
10

$$$$
