10141641
  -OEChem-02172602523D

 66 69  0     0  0  0  0  0  0999 V2000
    6.3254    3.3417   -2.1672 Cl  0  0  0  0  0  0  0  0  0  0  0  0
    5.3843    1.3187    2.1683 S   0  0  0  0  0  0  0  0  0  0  0  0
   -0.9290    1.1102    0.1857 O   0  0  0  0  0  0  0  0  0  0  0  0
   -5.0525    5.4414    0.9898 O   0  0  0  0  0  0  0  0  0  0  0  0
    2.9350   -0.7161    0.6642 N   0  0  0  0  0  0  0  0  0  0  0  0
   -1.0039   -0.9695   -0.8690 N   0  0  0  0  0  0  0  0  0  0  0  0
    5.8339    0.5355   -0.2539 N   0  0  0  0  0  0  0  0  0  0  0  0
    0.3552   -1.3427   -0.5657 C   0  0  0  0  0  0  0  0  0  0  0  0
    0.5807   -1.4217    0.9444 C   0  0  0  0  0  0  0  0  0  0  0  0
    1.3429   -0.3613   -1.1962 C   0  0  0  0  0  0  0  0  0  0  0  0
    2.0456   -1.7154    1.2722 C   0  0  0  0  0  0  0  0  0  0  0  0
    2.7828   -0.6889   -0.7972 C   0  0  0  0  0  0  0  0  0  0  0  0
    4.3267   -0.9807    1.0286 C   0  0  0  0  0  0  0  0  0  0  0  0
   -1.7776   -1.9519   -1.6320 C   0  0  0  0  0  0  0  0  0  0  0  0
   -1.5528    0.2616   -0.4576 C   0  0  0  0  0  0  0  0  0  0  0  0
   -1.9334   -3.2459   -0.8869 C   0  0  0  0  0  0  0  0  0  0  0  0
    5.1938    0.2324    0.8535 C   0  0  0  0  0  0  0  0  0  0  0  0
   -3.0009    0.5012   -0.8590 C   0  0  0  0  0  0  0  0  0  0  0  0
   -3.5482    1.8182   -0.3657 C   0  0  0  0  0  0  0  0  0  0  0  0
   -1.7353   -4.4587   -1.5468 C   0  0  0  0  0  0  0  0  0  0  0  0
   -2.2751   -3.2354    0.4656 C   0  0  0  0  0  0  0  0  0  0  0  0
    6.5300    1.7126   -0.0593 C   0  0  0  0  0  0  0  0  0  0  0  0
   -1.8788   -5.6610   -0.8545 C   0  0  0  0  0  0  0  0  0  0  0  0
   -2.4186   -4.4378    1.1578 C   0  0  0  0  0  0  0  0  0  0  0  0
    6.4090    2.2849    1.1897 C   0  0  0  0  0  0  0  0  0  0  0  0
   -2.2205   -5.6506    0.4977 C   0  0  0  0  0  0  0  0  0  0  0  0
   -3.4303    2.9616   -1.1558 C   0  0  0  0  0  0  0  0  0  0  0  0
   -4.1718    1.8924    0.8799 C   0  0  0  0  0  0  0  0  0  0  0  0
    7.3284    2.2486   -1.1795 C   0  0  0  0  0  0  0  0  0  0  0  0
   -3.9360    4.1792   -0.7005 C   0  0  0  0  0  0  0  0  0  0  0  0
   -4.6775    3.1099    1.3353 C   0  0  0  0  0  0  0  0  0  0  0  0
   -2.3737   -6.9364    1.2378 C   0  0  0  0  0  0  0  0  0  0  0  0
   -4.5595    4.2533    0.5451 C   0  0  0  0  0  0  0  0  0  0  0  0
   -4.8983    6.5706    0.1315 C   0  0  0  0  0  0  0  0  0  0  0  0
    0.5681   -2.3313   -0.9936 H   0  0  0  0  0  0  0  0  0  0  0  0
   -0.0320   -2.2072    1.3938 H   0  0  0  0  0  0  0  0  0  0  0  0
    0.2984   -0.4925    1.4510 H   0  0  0  0  0  0  0  0  0  0  0  0
    1.1376    0.6750   -0.9076 H   0  0  0  0  0  0  0  0  0  0  0  0
    1.2512   -0.3955   -2.2891 H   0  0  0  0  0  0  0  0  0  0  0  0
    2.1563   -1.6996    2.3636 H   0  0  0  0  0  0  0  0  0  0  0  0
    2.3052   -2.7270    0.9329 H   0  0  0  0  0  0  0  0  0  0  0  0
    3.0733   -1.6511   -1.2398 H   0  0  0  0  0  0  0  0  0  0  0  0
    3.4247    0.0788   -1.2430 H   0  0  0  0  0  0  0  0  0  0  0  0
    4.3916   -1.2938    2.0799 H   0  0  0  0  0  0  0  0  0  0  0  0
    4.7416   -1.8158    0.4484 H   0  0  0  0  0  0  0  0  0  0  0  0
   -2.7704   -1.6097   -1.9248 H   0  0  0  0  0  0  0  0  0  0  0  0
   -1.2267   -2.1115   -2.5680 H   0  0  0  0  0  0  0  0  0  0  0  0
   -3.6280   -0.3043   -0.4593 H   0  0  0  0  0  0  0  0  0  0  0  0
   -3.0777    0.4830   -1.9527 H   0  0  0  0  0  0  0  0  0  0  0  0
   -1.4702   -4.4815   -2.6005 H   0  0  0  0  0  0  0  0  0  0  0  0
   -2.4573   -2.3041    0.9949 H   0  0  0  0  0  0  0  0  0  0  0  0
   -1.7236   -6.5995   -1.3801 H   0  0  0  0  0  0  0  0  0  0  0  0
   -2.6914   -4.4169    2.2095 H   0  0  0  0  0  0  0  0  0  0  0  0
    6.8566    3.1942    1.5652 H   0  0  0  0  0  0  0  0  0  0  0  0
   -2.9442    2.9160   -2.1269 H   0  0  0  0  0  0  0  0  0  0  0  0
   -4.2675    1.0089    1.5056 H   0  0  0  0  0  0  0  0  0  0  0  0
    8.1938    2.8159   -0.8240 H   0  0  0  0  0  0  0  0  0  0  0  0
    7.6880    1.4457   -1.8300 H   0  0  0  0  0  0  0  0  0  0  0  0
   -3.8100    5.0276   -1.3643 H   0  0  0  0  0  0  0  0  0  0  0  0
   -5.1615    3.1618    2.3067 H   0  0  0  0  0  0  0  0  0  0  0  0
   -2.1113   -6.8177    2.2946 H   0  0  0  0  0  0  0  0  0  0  0  0
   -1.7133   -7.7088    0.8290 H   0  0  0  0  0  0  0  0  0  0  0  0
   -3.4081   -7.2876    1.1705 H   0  0  0  0  0  0  0  0  0  0  0  0
   -3.8422    6.8117   -0.0305 H   0  0  0  0  0  0  0  0  0  0  0  0
   -5.4430    6.4384   -0.8095 H   0  0  0  0  0  0  0  0  0  0  0  0
   -5.3471    7.4287    0.6425 H   0  0  0  0  0  0  0  0  0  0  0  0
  1 29  1  0  0  0  0
  2 17  1  0  0  0  0
  2 25  1  0  0  0  0
  3 15  2  0  0  0  0
  4 33  1  0  0  0  0
  4 34  1  0  0  0  0
  5 11  1  0  0  0  0
  5 12  1  0  0  0  0
  5 13  1  0  0  0  0
  6  8  1  0  0  0  0
  6 14  1  0  0  0  0
  6 15  1  0  0  0  0
  7 17  2  0  0  0  0
  7 22  1  0  0  0  0
  8  9  1  0  0  0  0
  8 10  1  0  0  0  0
  8 35  1  0  0  0  0
  9 11  1  0  0  0  0
  9 36  1  0  0  0  0
  9 37  1  0  0  0  0
 10 12  1  0  0  0  0
 10 38  1  0  0  0  0
 10 39  1  0  0  0  0
 11 40  1  0  0  0  0
 11 41  1  0  0  0  0
 12 42  1  0  0  0  0
 12 43  1  0  0  0  0
 13 17  1  0  0  0  0
 13 44  1  0  0  0  0
 13 45  1  0  0  0  0
 14 16  1  0  0  0  0
 14 46  1  0  0  0  0
 14 47  1  0  0  0  0
 15 18  1  0  0  0  0
 16 20  2  0  0  0  0
 16 21  1  0  0  0  0
 18 19  1  0  0  0  0
 18 48  1  0  0  0  0
 18 49  1  0  0  0  0
 19 27  2  0  0  0  0
 19 28  1  0  0  0  0
 20 23  1  0  0  0  0
 20 50  1  0  0  0  0
 21 24  2  0  0  0  0
 21 51  1  0  0  0  0
 22 25  2  0  0  0  0
 22 29  1  0  0  0  0
 23 26  2  0  0  0  0
 23 52  1  0  0  0  0
 24 26  1  0  0  0  0
 24 53  1  0  0  0  0
 25 54  1  0  0  0  0
 26 32  1  0  0  0  0
 27 30  1  0  0  0  0
 27 55  1  0  0  0  0
 28 31  2  0  0  0  0
 28 56  1  0  0  0  0
 29 57  1  0  0  0  0
 29 58  1  0  0  0  0
 30 33  2  0  0  0  0
 30 59  1  0  0  0  0
 31 33  1  0  0  0  0
 31 60  1  0  0  0  0
 32 61  1  0  0  0  0
 32 62  1  0  0  0  0
 32 63  1  0  0  0  0
 34 64  1  0  0  0  0
 34 65  1  0  0  0  0
 34 66  1  0  0  0  0
M  END
> <PUBCHEM_COMPOUND_CID>
10141641

> <PUBCHEM_CONFORMER_RMSD>
1.4

> <PUBCHEM_CONFORMER_DIVERSEORDER>
1
86
94
91
90
81
76
31
82
72
50
89
36
21
37
23
48
30
77
53
19
44
69
10
11
18
64
93
47
52
8
66
70
41
71
5
15
85
67
14
34
84
17
74
60
56
73
38
68
92
39
80
55
83
54
33
59
25
13
6
88
51
49
46
65
28
79
35
26
12
7
20
27
75
9
16
61
62
24
57
29
32
58
3
95
40
87
2
78
22
45
63
4
43
42

> <PUBCHEM_MMFF94_PARTIAL_CHARGES>
41
1 -0.29
11 0.27
12 0.27
13 0.45
14 0.44
15 0.57
16 -0.14
17 0.2
18 0.2
19 -0.14
2 -0.08
20 -0.15
21 -0.15
22 0.05
23 -0.15
24 -0.15
25 -0.11
26 -0.14
27 -0.15
28 -0.15
29 0.47
3 -0.57
30 -0.15
31 -0.15
32 0.14
33 0.08
34 0.28
4 -0.36
5 -0.81
50 0.15
51 0.15
52 0.15
53 0.15
54 0.15
55 0.15
56 0.15
59 0.15
6 -0.66
60 0.15
7 -0.57
8 0.3

> <PUBCHEM_EFFECTIVE_ROTOR_COUNT>
11.2

> <PUBCHEM_PHARMACOPHORE_FEATURES>
8
1 3 acceptor
1 4 acceptor
1 5 cation
1 7 acceptor
5 2 7 17 22 25 rings
6 16 20 21 23 24 26 rings
6 19 27 28 30 31 33 rings
6 5 8 9 10 11 12 rings

> <PUBCHEM_HEAVY_ATOM_COUNT>
34

> <PUBCHEM_ATOM_DEF_STEREO_COUNT>
0

> <PUBCHEM_ATOM_UDEF_STEREO_COUNT>
0

> <PUBCHEM_BOND_DEF_STEREO_COUNT>
0

> <PUBCHEM_BOND_UDEF_STEREO_COUNT>
0

> <PUBCHEM_ISOTOPIC_ATOM_COUNT>
0

> <PUBCHEM_COMPONENT_COUNT>
1

> <PUBCHEM_CACTVS_TAUTO_COUNT>
1

> <PUBCHEM_CONFORMER_ID>
009ABFC900000001

> <PUBCHEM_MMFF94_ENERGY>
82.5912

> <PUBCHEM_FEATURE_SELFOVERLAP>
40.598

> <PUBCHEM_SHAPE_FINGERPRINT>
10675989 125 17767963138887900424
11227688 84 10951464034557208389
11505856 67 18337389447609061156
13955234 65 17618507580371586155
14565420 104 18052253999706689921
14784336 7 17395582048679888620
14790565 3 18269265760093946256
15064981 194 18262801885989951508
15513586 35 17605280786044401644
15980000 95 17907299102627573031
16096371 109 17761212112098293537
16114785 44 18413669119681015587
16992779 147 17550682015105732481
18393751 57 18336266726637738045
20101258 96 18052532467678830951
20691028 202 18339640036538108236
21120745 212 18120654888152317327
23522609 53 17967540095489853972
27425 322 18127686028962700541
2747138 104 17905044013043116658
3418910 222 17831859423755448420
3552219 110 17679869489771039991
376196 1 17987230028374344719
4058900 60 18055357937731755705
4144715 1 18411981395328711890
4258327 124 17968370242650839053
5219985 13 18268708316515347773
550186 72 18050565450172324756
563151 97 18196078964231643261
6058803 2 18189594147620069882
6376802 137 17682674374177797898
6673363 416 17761502783154301772
6697151 62 16605177778778336509
9555976 147 18263628702355873738
9849439 229 18268429032040640517
9896288 288 18409171034164185378

> <PUBCHEM_SHAPE_MULTIPOLES>
678.74
15.72
10.89
1.75
36.11
2
0.06
-21.12
-0.98
-27.01
-1.63
1.53
0
-2.26

> <PUBCHEM_SHAPE_SELFOVERLAP>
1415.922

> <PUBCHEM_SHAPE_VOLUME>
388.7

> <PUBCHEM_COORDINATE_TYPE>
2
5
10

$$$$
