5281651
  -OEChem-02172602473D

 29 31  0     0  0  0  0  0  0999 V2000
   -0.5973    1.3722    0.0000 O   0  0  0  0  0  0  0  0  0  0  0  0
    4.1394    1.5818    0.0007 O   0  0  0  0  0  0  0  0  0  0  0  0
    2.0703   -2.6911   -0.0011 O   0  0  0  0  0  0  0  0  0  0  0  0
   -0.5645   -2.7195   -0.0004 O   0  0  0  0  0  0  0  0  0  0  0  0
   -2.9283    2.7512   -0.0005 O   0  0  0  0  0  0  0  0  0  0  0  0
    0.6831   -0.7074    0.0004 C   0  0  0  0  0  0  0  0  0  0  0  0
   -1.8197   -0.7420    0.0004 C   0  0  0  0  0  0  0  0  0  0  0  0
    0.5911    0.6842    0.0000 C   0  0  0  0  0  0  0  0  0  0  0  0
   -1.7663    0.6515    0.0002 C   0  0  0  0  0  0  0  0  0  0  0  0
   -0.5576   -1.4974    0.0007 C   0  0  0  0  0  0  0  0  0  0  0  0
    1.9309   -1.3364    0.0003 C   0  0  0  0  0  0  0  0  0  0  0  0
    1.7563    1.4537   -0.0005 C   0  0  0  0  0  0  0  0  0  0  0  0
   -3.0496   -1.4053    0.0004 C   0  0  0  0  0  0  0  0  0  0  0  0
    3.0046    0.8301   -0.0006 C   0  0  0  0  0  0  0  0  0  0  0  0
   -2.9523    1.3886   -0.0001 C   0  0  0  0  0  0  0  0  0  0  0  0
    3.0914   -0.5623   -0.0002 C   0  0  0  0  0  0  0  0  0  0  0  0
   -4.2311   -0.6635    0.0001 C   0  0  0  0  0  0  0  0  0  0  0  0
   -4.1829    0.7307   -0.0001 C   0  0  0  0  0  0  0  0  0  0  0  0
    5.3823    0.8812    0.0004 C   0  0  0  0  0  0  0  0  0  0  0  0
    1.6937    2.5391   -0.0005 H   0  0  0  0  0  0  0  0  0  0  0  0
   -3.1080   -2.4900    0.0005 H   0  0  0  0  0  0  0  0  0  0  0  0
    4.0386   -1.0916   -0.0002 H   0  0  0  0  0  0  0  0  0  0  0  0
   -5.1906   -1.1726    0.0001 H   0  0  0  0  0  0  0  0  0  0  0  0
   -5.1132    1.2925   -0.0003 H   0  0  0  0  0  0  0  0  0  0  0  0
    3.0143   -2.9239   -0.0014 H   0  0  0  0  0  0  0  0  0  0  0  0
   -3.8418    3.0850   -0.0008 H   0  0  0  0  0  0  0  0  0  0  0  0
    5.5089    0.2852   -0.9099 H   0  0  0  0  0  0  0  0  0  0  0  0
    5.5088    0.2845    0.9102 H   0  0  0  0  0  0  0  0  0  0  0  0
    6.1771    1.6344    0.0007 H   0  0  0  0  0  0  0  0  0  0  0  0
  1  8  1  0  0  0  0
  1  9  1  0  0  0  0
  2 14  1  0  0  0  0
  2 19  1  0  0  0  0
  3 11  1  0  0  0  0
  3 25  1  0  0  0  0
  4 10  2  0  0  0  0
  5 15  1  0  0  0  0
  5 26  1  0  0  0  0
  6  8  1  0  0  0  0
  6 10  1  0  0  0  0
  6 11  2  0  0  0  0
  7  9  2  0  0  0  0
  7 10  1  0  0  0  0
  7 13  1  0  0  0  0
  8 12  2  0  0  0  0
  9 15  1  0  0  0  0
 11 16  1  0  0  0  0
 12 14  1  0  0  0  0
 12 20  1  0  0  0  0
 13 17  2  0  0  0  0
 13 21  1  0  0  0  0
 14 16  2  0  0  0  0
 15 18  2  0  0  0  0
 16 22  1  0  0  0  0
 17 18  1  0  0  0  0
 17 23  1  0  0  0  0
 18 24  1  0  0  0  0
 19 27  1  0  0  0  0
 19 28  1  0  0  0  0
 19 29  1  0  0  0  0
M  END
> <PUBCHEM_COMPOUND_CID>
5281651

> <PUBCHEM_CONFORMER_RMSD>
0.6

> <PUBCHEM_CONFORMER_DIVERSEORDER>
1

> <PUBCHEM_MMFF94_PARTIAL_CHARGES>
26
1 -0.17
10 0.4
11 0.08
12 -0.15
13 -0.15
14 0.08
15 0.08
16 -0.15
17 -0.15
18 -0.15
19 0.28
2 -0.36
20 0.15
21 0.15
22 0.15
23 0.15
24 0.15
25 0.45
26 0.45
3 -0.53
4 -0.57
5 -0.53
6 0.09
7 0.09
8 0.08
9 0.08

> <PUBCHEM_EFFECTIVE_ROTOR_COUNT>
1

> <PUBCHEM_PHARMACOPHORE_FEATURES>
8
1 1 acceptor
1 2 acceptor
1 3 donor
1 4 acceptor
1 5 donor
6 1 6 7 8 9 10 rings
6 6 8 11 12 14 16 rings
6 7 9 13 15 17 18 rings

> <PUBCHEM_HEAVY_ATOM_COUNT>
19

> <PUBCHEM_ATOM_DEF_STEREO_COUNT>
0

> <PUBCHEM_ATOM_UDEF_STEREO_COUNT>
0

> <PUBCHEM_BOND_DEF_STEREO_COUNT>
0

> <PUBCHEM_BOND_UDEF_STEREO_COUNT>
0

> <PUBCHEM_ISOTOPIC_ATOM_COUNT>
0

> <PUBCHEM_COMPONENT_COUNT>
1

> <PUBCHEM_CACTVS_TAUTO_COUNT>
14

> <PUBCHEM_CONFORMER_ID>
0050977300000001

> <PUBCHEM_MMFF94_ENERGY>
66.7714

> <PUBCHEM_FEATURE_SELFOVERLAP>
40.654

> <PUBCHEM_SHAPE_FINGERPRINT>
10411042 1 16753531584000420515
10608611 8 18338233769655059013
10616163 171 18338518650356407487
10967382 1 18410855447296026919
11471102 20 18411133636606971006
11578080 2 17024857174431730918
12236239 1 17749386023023208836
12390115 104 18271825496199016881
13140716 1 17905615745539545675
13380535 76 18409449223701404162
138480 1 17834395622985874246
14790565 3 18337680818507471788
15042514 8 18120940761244552395
15196674 1 18410573963676738086
15442244 35 18194682557813523971
15536298 74 18342177735049022534
16945 1 18338517568029676743
17492 89 18410855417670086691
18186145 218 18200603488069033349
19591789 44 17978793733410134475
200 152 18060698420505611669
20510252 161 18343587339052348713
20645477 70 18271525299517690559
21267235 1 18337962275955568870
21279426 13 18269278963603532142
21501502 16 18338794516232137771
221490 88 18337963285262658818
2334 1 18410855443180446667
23366157 5 18041564620586322186
23402539 116 18341606079186141661
23402655 69 18343015571625923165
23463225 33 18336827489945916199
23559900 14 18127125274075592454
238 59 16889443410057390341
2748010 2 18337957796489198191
335352 9 17906453221291662103
34934 24 18410568492226091111
350125 39 18410858776270695513
3545911 37 18409450288816266365
4214541 1 18410573972414742496
474 4 17749113335111690644
4990 188 18060148630638090252
5104073 3 18409730625389085770
58051976 378 18412262843681031117
69090 78 18341328976296415807
7364860 26 18341614759573983638
9709674 26 18411425015747072423

> <PUBCHEM_SHAPE_MULTIPOLES>
361.66
8.4
2.51
0.59
3.77
0.56
0
-3.03
0
-0.36
0
-0.01
0
0

> <PUBCHEM_SHAPE_SELFOVERLAP>
814.017

> <PUBCHEM_SHAPE_VOLUME>
190.2

> <PUBCHEM_COORDINATE_TYPE>
2
5
10

$$$$
