101297599
  -OEChem-02172602533D

 48 52  0     1  0  0  0  0  0999 V2000
   -0.4571   -2.0773    1.3009 O   0  0  0  0  0  0  0  0  0  0  0  0
   -0.4288    2.0806   -0.4782 O   0  0  0  0  0  0  0  0  0  0  0  0
    2.3168    2.8568   -0.2793 O   0  0  0  0  0  0  0  0  0  0  0  0
   -2.5181    0.2092   -1.5883 N   0  0  0  0  0  0  0  0  0  0  0  0
    1.8198    1.5620   -0.2424 N   0  0  0  0  0  0  0  0  0  0  0  0
   -2.8901   -0.6545    0.5895 C   0  0  2  0  0  0  0  0  0  0  0  0
   -2.3739   -1.8056   -0.2634 C   0  0  1  0  0  0  0  0  0  0  0  0
   -1.7929   -1.0755   -1.4880 C   0  0  2  0  0  0  0  0  0  0  0  0
    0.3357   -0.2784   -0.1811 C   0  0  2  0  0  0  0  0  0  0  0  0
   -0.3675   -0.6572    1.1505 C   0  0  1  0  0  0  0  0  0  0  0  0
   -3.4980    0.2378   -0.4957 C   0  0  1  0  0  0  0  0  0  0  0  0
   -1.7534   -0.0496    1.4266 C   0  0  0  0  0  0  0  0  0  0  0  0
   -0.2698   -0.8834   -1.4667 C   0  0  0  0  0  0  0  0  0  0  0  0
   -1.4270   -2.7293    0.4890 C   0  0  0  0  0  0  0  0  0  0  0  0
    1.8215   -0.6807   -0.0953 C   0  0  0  0  0  0  0  0  0  0  0  0
   -3.8841    1.6486   -0.0767 C   0  0  0  0  0  0  0  0  0  0  0  0
    0.4791    1.2797   -0.3191 C   0  0  0  0  0  0  0  0  0  0  0  0
    2.6331    0.4547   -0.1260 C   0  0  0  0  0  0  0  0  0  0  0  0
   -4.9382    1.6379    1.0162 C   0  0  0  0  0  0  0  0  0  0  0  0
    2.4002   -1.9372    0.0058 C   0  0  0  0  0  0  0  0  0  0  0  0
    4.0124    0.3921   -0.0567 C   0  0  0  0  0  0  0  0  0  0  0  0
    3.7943   -2.0271    0.0778 C   0  0  0  0  0  0  0  0  0  0  0  0
    4.5933   -0.8718    0.0479 C   0  0  0  0  0  0  0  0  0  0  0  0
    2.3926    3.3683    1.0526 C   0  0  0  0  0  0  0  0  0  0  0  0
   -3.6796   -1.0088    1.2642 H   0  0  0  0  0  0  0  0  0  0  0  0
   -3.2284   -2.4048   -0.6110 H   0  0  0  0  0  0  0  0  0  0  0  0
   -2.0331   -1.6577   -2.3866 H   0  0  0  0  0  0  0  0  0  0  0  0
    0.2755   -0.3158    1.9740 H   0  0  0  0  0  0  0  0  0  0  0  0
   -4.4060   -0.2528   -0.8758 H   0  0  0  0  0  0  0  0  0  0  0  0
   -1.7209    1.0398    1.3948 H   0  0  0  0  0  0  0  0  0  0  0  0
   -1.9932   -0.2884    2.4733 H   0  0  0  0  0  0  0  0  0  0  0  0
    0.1714   -1.8708   -1.6589 H   0  0  0  0  0  0  0  0  0  0  0  0
    0.0248   -0.2789   -2.3368 H   0  0  0  0  0  0  0  0  0  0  0  0
   -1.8685    0.9872   -1.4924 H   0  0  0  0  0  0  0  0  0  0  0  0
   -2.0091   -3.3681    1.1632 H   0  0  0  0  0  0  0  0  0  0  0  0
   -0.9068   -3.4048   -0.1985 H   0  0  0  0  0  0  0  0  0  0  0  0
   -4.2971    2.1768   -0.9461 H   0  0  0  0  0  0  0  0  0  0  0  0
   -3.0236    2.2402    0.2487 H   0  0  0  0  0  0  0  0  0  0  0  0
   -5.8198    1.0646    0.7117 H   0  0  0  0  0  0  0  0  0  0  0  0
   -5.2623    2.6607    1.2345 H   0  0  0  0  0  0  0  0  0  0  0  0
   -4.5504    1.2091    1.9451 H   0  0  0  0  0  0  0  0  0  0  0  0
    1.7985   -2.8389    0.0268 H   0  0  0  0  0  0  0  0  0  0  0  0
    4.6299    1.2825   -0.0848 H   0  0  0  0  0  0  0  0  0  0  0  0
    4.2666   -3.0027    0.1574 H   0  0  0  0  0  0  0  0  0  0  0  0
    5.6743   -0.9661    0.1044 H   0  0  0  0  0  0  0  0  0  0  0  0
    2.7695    4.3934    1.0000 H   0  0  0  0  0  0  0  0  0  0  0  0
    3.0837    2.7764    1.6606 H   0  0  0  0  0  0  0  0  0  0  0  0
    1.4010    3.3871    1.5159 H   0  0  0  0  0  0  0  0  0  0  0  0
  1 10  1  0  0  0  0
  1 14  1  0  0  0  0
  2 17  2  0  0  0  0
  3  5  1  0  0  0  0
  3 24  1  0  0  0  0
  4  8  1  0  0  0  0
  4 11  1  0  0  0  0
  4 34  1  0  0  0  0
  5 17  1  0  0  0  0
  5 18  1  0  0  0  0
  6  7  1  0  0  0  0
  6 11  1  0  0  0  0
  6 12  1  0  0  0  0
  6 25  1  0  0  0  0
  7  8  1  0  0  0  0
  7 14  1  0  0  0  0
  7 26  1  0  0  0  0
  8 13  1  0  0  0  0
  8 27  1  0  0  0  0
  9 10  1  0  0  0  0
  9 13  1  0  0  0  0
  9 15  1  0  0  0  0
  9 17  1  0  0  0  0
 10 12  1  0  0  0  0
 10 28  1  0  0  0  0
 11 16  1  0  0  0  0
 11 29  1  0  0  0  0
 12 30  1  0  0  0  0
 12 31  1  0  0  0  0
 13 32  1  0  0  0  0
 13 33  1  0  0  0  0
 14 35  1  0  0  0  0
 14 36  1  0  0  0  0
 15 18  1  0  0  0  0
 15 20  2  0  0  0  0
 16 19  1  0  0  0  0
 16 37  1  0  0  0  0
 16 38  1  0  0  0  0
 18 21  2  0  0  0  0
 19 39  1  0  0  0  0
 19 40  1  0  0  0  0
 19 41  1  0  0  0  0
 20 22  1  0  0  0  0
 20 42  1  0  0  0  0
 21 23  1  0  0  0  0
 21 43  1  0  0  0  0
 22 23  2  0  0  0  0
 22 44  1  0  0  0  0
 23 45  1  0  0  0  0
 24 46  1  0  0  0  0
 24 47  1  0  0  0  0
 24 48  1  0  0  0  0
M  END
> <PUBCHEM_COMPOUND_CID>
101297599

> <PUBCHEM_CONFORMER_RMSD>
0.6

> <PUBCHEM_CONFORMER_DIVERSEORDER>
1
4
2
3

> <PUBCHEM_MMFF94_PARTIAL_CHARGES>
23
1 -0.56
10 0.28
11 0.27
14 0.28
15 -0.14
17 0.57
18 0.12
2 -0.57
20 -0.15
21 -0.15
22 -0.15
23 -0.15
24 0.28
3 -0.32
34 0.36
4 -0.9
42 0.15
43 0.15
44 0.15
45 0.15
5 -0.14
8 0.27
9 0.2

> <PUBCHEM_EFFECTIVE_ROTOR_COUNT>
3.4

> <PUBCHEM_PHARMACOPHORE_FEATURES>
9
1 1 acceptor
1 19 hydrophobe
1 2 acceptor
1 4 cation
1 4 donor
5 4 6 7 8 11 rings
5 5 9 15 17 18 rings
6 15 18 20 21 22 23 rings
9 1 6 7 8 9 10 12 13 14 rings

> <PUBCHEM_HEAVY_ATOM_COUNT>
24

> <PUBCHEM_ATOM_DEF_STEREO_COUNT>
5

> <PUBCHEM_ATOM_UDEF_STEREO_COUNT>
1

> <PUBCHEM_BOND_DEF_STEREO_COUNT>
0

> <PUBCHEM_BOND_UDEF_STEREO_COUNT>
0

> <PUBCHEM_ISOTOPIC_ATOM_COUNT>
0

> <PUBCHEM_COMPONENT_COUNT>
1

> <PUBCHEM_CACTVS_TAUTO_COUNT>
1

> <PUBCHEM_CONFORMER_ID>
0609ADBF00000001

> <PUBCHEM_MMFF94_ENERGY>
91.3746

> <PUBCHEM_FEATURE_SELFOVERLAP>
46.322

> <PUBCHEM_SHAPE_FINGERPRINT>
10074138 170 14942490728450918483
10863032 1 18339361971827792231
10906281 52 18338812134704807822
10948715 1 18412829088412146031
10967382 1 18264488395219593558
11640471 11 17632306712670596953
12236239 1 17917426488770411903
12507560 14 18268711597907116218
12553582 1 18410860928349809170
12633257 1 18260819402327070584
12788726 201 18048878494751074850
13134695 92 18341327812777146420
13140716 1 18337387270424515368
13583140 156 18269843175480889658
14022347 108 18192724349633445710
14178342 30 17975411626989870616
14223421 5 18049164663647147882
14790565 3 18192156984000301300
15209289 33 17967255286652981891
15238133 3 18337402543275583020
15295992 7 18335711550173825937
16945 1 18411136935263264534
17349148 13 17489871514058753655
17492 89 18340486793324154662
17980427 23 17561073696835534760
18186145 218 18040987440846657975
18335252 114 18196645199793308917
19049666 15 18262798608882126058
19591789 44 17904200334587480468
19930381 70 17401765723332844321
200 152 17988636385456013262
21033648 29 17677035877066686861
23184049 59 18337961090781705693
23227448 37 18412266138205887391
2334 1 17904484352670088116
23402539 116 18342168913027986511
23558518 356 18044379554810091347
23559900 14 18410008828534555002
25 1 18188205403602545347
2748010 2 17974855274464775438
296302 2 17632290168546379742
3286 77 18260834838503219103
335352 9 18337392643381019646
34934 24 18411136918521284226
350125 39 18336273435233904899
404807 14 14684730142770775271
5104073 3 18335416894026743874
74978 22 18410574023959436430
81228 2 18051421665188175578
84936 182 17914045662704362432
9709674 26 18337955704877522390
9981440 41 17693358345802334656

> <PUBCHEM_SHAPE_MULTIPOLES>
466.34
7.63
3.04
1.23
0.09
1.54
0.06
1.51
-0.68
-1.19
-0.59
0.8
-0.15
-0.1

> <PUBCHEM_SHAPE_SELFOVERLAP>
1030.734

> <PUBCHEM_SHAPE_VOLUME>
247.7

> <PUBCHEM_COORDINATE_TYPE>
2
5
10

$$$$
