10091878
  -OEChem-02172602523D

 45 47  0     0  0  0  0  0  0999 V2000
   -6.6407   -1.4970    0.1048 Cl  0  0  0  0  0  0  0  0  0  0  0  0
    4.5391    1.4687    0.6606 O   0  0  0  0  0  0  0  0  0  0  0  0
    2.8290   -2.8205   -0.1908 O   0  0  0  0  0  0  0  0  0  0  0  0
   -4.7234    2.2114   -0.9810 O   0  5  0  0  0  0  0  0  0  0  0  0
   -6.4907    0.9401   -0.6990 O   0  0  0  0  0  0  0  0  0  0  0  0
    2.2286    1.1959    0.6083 N   0  0  0  0  0  0  0  0  0  0  0  0
    3.7130   -0.6810    0.2341 N   0  0  0  0  0  0  0  0  0  0  0  0
    0.1361   -1.5595    0.0617 N   0  0  0  0  0  0  0  0  0  0  0  0
   -0.1583    0.6080    0.4929 N   0  0  0  0  0  0  0  0  0  0  0  0
   -5.2517    1.1220   -0.6582 N   0  3  0  0  0  0  0  0  0  0  0  0
    1.1761    0.3082    0.4320 C   0  0  0  0  0  0  0  0  0  0  0  0
    1.3850   -1.0179    0.1679 C   0  0  0  0  0  0  0  0  0  0  0  0
    1.9643    2.6017    0.8890 C   0  0  0  0  0  0  0  0  0  0  0  0
    3.5624    0.7254    0.5134 C   0  0  0  0  0  0  0  0  0  0  0  0
    5.0785   -1.1852    0.1337 C   0  0  0  0  0  0  0  0  0  0  0  0
    2.6699   -1.6266    0.0464 C   0  0  0  0  0  0  0  0  0  0  0  0
    1.8580    3.4372   -0.3810 C   0  0  0  0  0  0  0  0  0  0  0  0
   -0.7595   -0.5415    0.2651 C   0  0  0  0  0  0  0  0  0  0  0  0
    5.6216   -1.1113   -1.2884 C   0  0  0  0  0  0  0  0  0  0  0  0
   -2.1854   -0.7602    0.2236 C   0  0  0  0  0  0  0  0  0  0  0  0
    1.6037    4.9106   -0.0963 C   0  0  0  0  0  0  0  0  0  0  0  0
    7.0380   -1.6557   -1.4062 C   0  0  0  0  0  0  0  0  0  0  0  0
   -3.0363    0.2651   -0.1887 C   0  0  0  0  0  0  0  0  0  0  0  0
   -2.7117   -1.9973    0.5942 C   0  0  0  0  0  0  0  0  0  0  0  0
   -4.4144    0.0531   -0.2304 C   0  0  0  0  0  0  0  0  0  0  0  0
   -4.0899   -2.2094    0.5524 C   0  0  0  0  0  0  0  0  0  0  0  0
   -4.9412   -1.1842    0.1401 C   0  0  0  0  0  0  0  0  0  0  0  0
    2.7797    2.9919    1.5102 H   0  0  0  0  0  0  0  0  0  0  0  0
    1.0490    2.6857    1.4872 H   0  0  0  0  0  0  0  0  0  0  0  0
    5.1039   -2.2250    0.4810 H   0  0  0  0  0  0  0  0  0  0  0  0
    5.7287   -0.6147    0.8071 H   0  0  0  0  0  0  0  0  0  0  0  0
   -0.0764   -2.5272   -0.1428 H   0  0  0  0  0  0  0  0  0  0  0  0
    2.7803    3.3409   -0.9667 H   0  0  0  0  0  0  0  0  0  0  0  0
    1.0483    3.0513   -1.0120 H   0  0  0  0  0  0  0  0  0  0  0  0
    4.9670   -1.6735   -1.9653 H   0  0  0  0  0  0  0  0  0  0  0  0
    5.6081   -0.0717   -1.6372 H   0  0  0  0  0  0  0  0  0  0  0  0
    2.4167    5.3396    0.4980 H   0  0  0  0  0  0  0  0  0  0  0  0
    1.5332    5.4718   -1.0332 H   0  0  0  0  0  0  0  0  0  0  0  0
    0.6669    5.0456    0.4536 H   0  0  0  0  0  0  0  0  0  0  0  0
    7.0785   -2.7074   -1.1054 H   0  0  0  0  0  0  0  0  0  0  0  0
    7.3878   -1.5832   -2.4407 H   0  0  0  0  0  0  0  0  0  0  0  0
    7.7278   -1.0894   -0.7725 H   0  0  0  0  0  0  0  0  0  0  0  0
   -2.6041    1.2211   -0.4774 H   0  0  0  0  0  0  0  0  0  0  0  0
   -2.0778   -2.8131    0.9326 H   0  0  0  0  0  0  0  0  0  0  0  0
   -4.4845   -3.1786    0.8471 H   0  0  0  0  0  0  0  0  0  0  0  0
  1 27  1  0  0  0  0
  2 14  2  0  0  0  0
  3 16  2  0  0  0  0
  4 10  1  0  0  0  0
  5 10  2  0  0  0  0
  6 11  1  0  0  0  0
  6 13  1  0  0  0  0
  6 14  1  0  0  0  0
  7 14  1  0  0  0  0
  7 15  1  0  0  0  0
  7 16  1  0  0  0  0
  8 12  1  0  0  0  0
  8 18  1  0  0  0  0
  8 32  1  0  0  0  0
  9 11  1  0  0  0  0
  9 18  2  0  0  0  0
 10 25  1  0  0  0  0
 11 12  2  0  0  0  0
 12 16  1  0  0  0  0
 13 17  1  0  0  0  0
 13 28  1  0  0  0  0
 13 29  1  0  0  0  0
 15 19  1  0  0  0  0
 15 30  1  0  0  0  0
 15 31  1  0  0  0  0
 17 21  1  0  0  0  0
 17 33  1  0  0  0  0
 17 34  1  0  0  0  0
 18 20  1  0  0  0  0
 19 22  1  0  0  0  0
 19 35  1  0  0  0  0
 19 36  1  0  0  0  0
 20 23  2  0  0  0  0
 20 24  1  0  0  0  0
 21 37  1  0  0  0  0
 21 38  1  0  0  0  0
 21 39  1  0  0  0  0
 22 40  1  0  0  0  0
 22 41  1  0  0  0  0
 22 42  1  0  0  0  0
 23 25  1  0  0  0  0
 23 43  1  0  0  0  0
 24 26  2  0  0  0  0
 24 44  1  0  0  0  0
 25 27  2  0  0  0  0
 26 27  1  0  0  0  0
 26 45  1  0  0  0  0
M  CHG  2   4  -1  10   1
M  END
> <PUBCHEM_COMPOUND_CID>
10091878

> <PUBCHEM_CONFORMER_RMSD>
0.8

> <PUBCHEM_CONFORMER_DIVERSEORDER>
1
18
14
20
26
2
22
25
17
19
3
10
23
21
24
27
4
16
12
15
8
7
13
5
11
6
9

> <PUBCHEM_MMFF94_PARTIAL_CHARGES>
27
1 -0.18
10 0.91
11 0.29
12 -0.24
13 0.3
14 0.69
15 0.3
16 0.71
18 0.13
2 -0.57
20 0.05
23 -0.15
24 -0.15
25 0.13
26 -0.15
27 0.18
3 -0.57
32 0.27
4 -0.52
43 0.15
44 0.15
45 0.15
5 -0.52
6 -0.42
7 -0.42
8 0.03
9 -0.57

> <PUBCHEM_EFFECTIVE_ROTOR_COUNT>
6

> <PUBCHEM_PHARMACOPHORE_FEATURES>
12
1 2 acceptor
1 21 hydrophobe
1 22 hydrophobe
1 3 acceptor
1 4 acceptor
1 4 anion
1 5 acceptor
1 8 donor
3 8 9 18 cation
5 8 9 11 12 18 rings
6 20 23 24 25 26 27 rings
6 6 7 11 12 14 16 rings

> <PUBCHEM_HEAVY_ATOM_COUNT>
27

> <PUBCHEM_ATOM_DEF_STEREO_COUNT>
0

> <PUBCHEM_ATOM_UDEF_STEREO_COUNT>
0

> <PUBCHEM_BOND_DEF_STEREO_COUNT>
0

> <PUBCHEM_BOND_UDEF_STEREO_COUNT>
0

> <PUBCHEM_ISOTOPIC_ATOM_COUNT>
0

> <PUBCHEM_COMPONENT_COUNT>
1

> <PUBCHEM_CACTVS_TAUTO_COUNT>
3

> <PUBCHEM_CONFORMER_ID>
0099FD6600000001

> <PUBCHEM_MMFF94_ENERGY>
56.7396

> <PUBCHEM_FEATURE_SELFOVERLAP>
61.092

> <PUBCHEM_SHAPE_FINGERPRINT>
10411042 1 18339644439480161466
12166972 35 18201442501398603121
12236239 1 17203613713650141315
12788726 201 18044095657777501952
13668630 136 17346878949146685823
14341114 176 18412547638946821985
15081414 286 18341898545401569688
15183329 4 18410856512627452963
16087824 20 18194685852592367601
17844677 252 18411141355259274889
18681886 176 18413385458196589002
20645477 70 18060423516602549910
21033648 29 17774140354042069075
21065198 57 18336824290469762923
21133410 127 17680981100939641101
21267235 1 18272097092793073154
21279426 13 18411416189699698060
21315763 129 18336539508304683915
21709351 56 18412820309356899887
21792961 116 18188503371839469074
221357 26 18411136939415670511
22289505 5 18411415081845899668
22393880 68 18410571799071853891
23559900 14 18411695517314021865
23576562 1 18339923843317213758
24771750 20 18120671372716821756
249057 3 18412824677401819799
29717793 49 17274824631967889382
3004659 81 18334858307923774290
335352 9 18411418392907255295
340366 18 18059857306995616446
350125 39 18336547226419073409
3545911 37 18409730651676080723
4073 2 18040999595694381051
4144715 1 18261960764158584929
4214541 1 18409445891276079595
46194498 28 18262798600408573701
5104073 3 18335136484581886795
59755656 215 18337671915008203006
6443956 14 18410012152491303260
9709674 26 18263926712334571315

> <PUBCHEM_SHAPE_MULTIPOLES>
509.13
15.64
3.89
0.92
7.39
5.46
0.15
-6.57
4.8
-3.06
0.27
-0.59
0.01
2.24

> <PUBCHEM_SHAPE_SELFOVERLAP>
1086.444

> <PUBCHEM_SHAPE_VOLUME>
284.2

> <PUBCHEM_COORDINATE_TYPE>
2
5
10

$$$$
