15558434
  -OEChem-02172602443D

 85 89  0     1  0  0  0  0  0999 V2000
    3.1479   -1.2798   -2.0167 O   0  0  0  0  0  0  0  0  0  0  0  0
   -7.5245    1.2348   -0.5737 O   0  0  0  0  0  0  0  0  0  0  0  0
    5.5218   -1.8092   -0.1361 O   0  0  0  0  0  0  0  0  0  0  0  0
    6.7807    0.6499   -0.5762 O   0  0  0  0  0  0  0  0  0  0  0  0
    3.7637   -2.7779    1.6597 O   0  0  0  0  0  0  0  0  0  0  0  0
   -1.1041   -0.8095    0.1419 C   0  0  2  0  0  0  0  0  0  0  0  0
   -1.8618    0.5484    0.4073 C   0  0  1  0  0  0  0  0  0  0  0  0
    0.3953   -0.4642   -0.4452 C   0  0  1  0  0  0  0  0  0  0  0  0
   -3.4350    0.4714    0.6666 C   0  0  2  0  0  0  0  0  0  0  0  0
   -4.0572   -0.3752   -0.5051 C   0  0  1  0  0  0  0  0  0  0  0  0
   -1.9158   -1.6749   -0.8617 C   0  0  0  0  0  0  0  0  0  0  0  0
    1.1059    0.5300    0.4905 C   0  0  0  0  0  0  0  0  0  0  0  0
    2.6373    0.6099    0.5364 C   0  0  1  0  0  0  0  0  0  0  0  0
    3.3555   -0.7712    0.4264 C   0  0  1  0  0  0  0  0  0  0  0  0
   -3.4141   -1.7769   -0.5624 C   0  0  0  0  0  0  0  0  0  0  0  0
    1.2186   -1.7802   -0.6315 C   0  0  0  0  0  0  0  0  0  0  0  0
   -5.6280   -0.3539   -0.6223 C   0  0  0  0  0  0  0  0  0  0  0  0
   -1.0865    1.4254    1.4145 C   0  0  0  0  0  0  0  0  0  0  0  0
   -4.0170    1.9147    0.5790 C   0  0  0  0  0  0  0  0  0  0  0  0
    2.7489   -1.6534   -0.7063 C   0  0  1  0  0  0  0  0  0  0  0  0
   -0.9854   -1.6319    1.4624 C   0  0  0  0  0  0  0  0  0  0  0  0
    0.4059    1.3547    1.2957 C   0  0  0  0  0  0  0  0  0  0  0  0
    3.1598    1.7066   -0.4170 C   0  0  0  0  0  0  0  0  0  0  0  0
    0.2979    0.2211   -1.8425 C   0  0  0  0  0  0  0  0  0  0  0  0
   -6.1022    1.1315   -0.6381 C   0  0  2  0  0  0  0  0  0  0  0  0
   -3.7857   -0.0856    2.0698 C   0  0  0  0  0  0  0  0  0  0  0  0
    4.9039   -0.5881    0.2873 C   0  0  2  0  0  0  0  0  0  0  0  0
   -5.5405    1.9715    0.5042 C   0  0  0  0  0  0  0  0  0  0  0  0
    4.6925    1.8778   -0.4066 C   0  0  0  0  0  0  0  0  0  0  0  0
    5.3582    0.5119   -0.6807 C   0  0  1  0  0  0  0  0  0  0  0  0
    3.1235   -1.5323    1.7718 C   0  0  0  0  0  0  0  0  0  0  0  0
   -6.3486   -1.1638    0.4736 C   0  0  0  0  0  0  0  0  0  0  0  0
   -6.0530   -0.9938   -1.9746 C   0  0  0  0  0  0  0  0  0  0  0  0
    5.0834    2.8718   -1.5226 C   0  0  0  0  0  0  0  0  0  0  0  0
    5.1589    2.4906    0.9324 C   0  0  0  0  0  0  0  0  0  0  0  0
   -1.8016    1.0980   -0.5413 H   0  0  0  0  0  0  0  0  0  0  0  0
   -3.7229    0.1282   -1.4283 H   0  0  0  0  0  0  0  0  0  0  0  0
   -1.4977   -2.6875   -0.9157 H   0  0  0  0  0  0  0  0  0  0  0  0
   -1.8433   -1.2683   -1.8731 H   0  0  0  0  0  0  0  0  0  0  0  0
    2.8889    0.9803    1.5422 H   0  0  0  0  0  0  0  0  0  0  0  0
   -3.8566   -2.3716   -1.3673 H   0  0  0  0  0  0  0  0  0  0  0  0
   -3.5829   -2.3464    0.3550 H   0  0  0  0  0  0  0  0  0  0  0  0
    0.8582   -2.2983   -1.5303 H   0  0  0  0  0  0  0  0  0  0  0  0
    1.0252   -2.4697    0.1908 H   0  0  0  0  0  0  0  0  0  0  0  0
   -1.3283    1.1628    2.4471 H   0  0  0  0  0  0  0  0  0  0  0  0
   -1.3803    2.4733    1.2824 H   0  0  0  0  0  0  0  0  0  0  0  0
   -3.6182    2.4193   -0.3111 H   0  0  0  0  0  0  0  0  0  0  0  0
   -3.6915    2.5089    1.4417 H   0  0  0  0  0  0  0  0  0  0  0  0
    3.1414   -2.6730   -0.6174 H   0  0  0  0  0  0  0  0  0  0  0  0
   -0.6189   -2.6470    1.2835 H   0  0  0  0  0  0  0  0  0  0  0  0
   -0.3200   -1.1662    2.1937 H   0  0  0  0  0  0  0  0  0  0  0  0
   -1.9424   -1.7797    1.9562 H   0  0  0  0  0  0  0  0  0  0  0  0
    0.9444    2.0432    1.9442 H   0  0  0  0  0  0  0  0  0  0  0  0
    2.8560    1.4748   -1.4422 H   0  0  0  0  0  0  0  0  0  0  0  0
    2.6812    2.6653   -0.1739 H   0  0  0  0  0  0  0  0  0  0  0  0
   -0.2052   -0.4021   -2.5852 H   0  0  0  0  0  0  0  0  0  0  0  0
   -0.2048    1.1917   -1.8106 H   0  0  0  0  0  0  0  0  0  0  0  0
    1.2857    0.4107   -2.2679 H   0  0  0  0  0  0  0  0  0  0  0  0
   -5.7928    1.5898   -1.5869 H   0  0  0  0  0  0  0  0  0  0  0  0
    5.3348   -0.3724    1.2733 H   0  0  0  0  0  0  0  0  0  0  0  0
   -3.9150   -1.1690    2.0811 H   0  0  0  0  0  0  0  0  0  0  0  0
   -3.0352    0.1591    2.8231 H   0  0  0  0  0  0  0  0  0  0  0  0
   -4.7157    0.3280    2.4666 H   0  0  0  0  0  0  0  0  0  0  0  0
   -6.0000    1.6787    1.4543 H   0  0  0  0  0  0  0  0  0  0  0  0
   -5.8475    3.0167    0.3653 H   0  0  0  0  0  0  0  0  0  0  0  0
    5.1624    0.1894   -1.7099 H   0  0  0  0  0  0  0  0  0  0  0  0
    2.0690   -1.6815    2.0181 H   0  0  0  0  0  0  0  0  0  0  0  0
    3.5743   -0.9918    2.6117 H   0  0  0  0  0  0  0  0  0  0  0  0
   -5.9352   -2.1730    0.5666 H   0  0  0  0  0  0  0  0  0  0  0  0
   -6.3032   -0.6872    1.4531 H   0  0  0  0  0  0  0  0  0  0  0  0
   -7.4142   -1.2795    0.2407 H   0  0  0  0  0  0  0  0  0  0  0  0
   -5.8812   -2.0746   -1.9908 H   0  0  0  0  0  0  0  0  0  0  0  0
   -7.1220   -0.8433   -2.1655 H   0  0  0  0  0  0  0  0  0  0  0  0
   -5.5060   -0.5497   -2.8137 H   0  0  0  0  0  0  0  0  0  0  0  0
    2.7596   -1.9141   -2.6429 H   0  0  0  0  0  0  0  0  0  0  0  0
    4.5522    3.8233   -1.4025 H   0  0  0  0  0  0  0  0  0  0  0  0
    6.1552    3.0965   -1.5152 H   0  0  0  0  0  0  0  0  0  0  0  0
    4.8304    2.4761   -2.5126 H   0  0  0  0  0  0  0  0  0  0  0  0
    4.9600    1.8352    1.7849 H   0  0  0  0  0  0  0  0  0  0  0  0
    6.2348    2.6980    0.9251 H   0  0  0  0  0  0  0  0  0  0  0  0
    4.6467    3.4405    1.1248 H   0  0  0  0  0  0  0  0  0  0  0  0
   -7.7575    2.1750   -0.6596 H   0  0  0  0  0  0  0  0  0  0  0  0
    6.4810   -1.6536   -0.1752 H   0  0  0  0  0  0  0  0  0  0  0  0
    7.0902    1.1410   -1.3555 H   0  0  0  0  0  0  0  0  0  0  0  0
    3.0957   -3.4370    1.4054 H   0  0  0  0  0  0  0  0  0  0  0  0
  1 20  1  0  0  0  0
  1 75  1  0  0  0  0
  2 25  1  0  0  0  0
  2 82  1  0  0  0  0
  3 27  1  0  0  0  0
  3 83  1  0  0  0  0
  4 30  1  0  0  0  0
  4 84  1  0  0  0  0
  5 31  1  0  0  0  0
  5 85  1  0  0  0  0
  6  7  1  0  0  0  0
  6  8  1  0  0  0  0
  6 11  1  0  0  0  0
  6 21  1  0  0  0  0
  7  9  1  0  0  0  0
  7 18  1  0  0  0  0
  7 36  1  0  0  0  0
  8 12  1  0  0  0  0
  8 16  1  0  0  0  0
  8 24  1  0  0  0  0
  9 10  1  0  0  0  0
  9 19  1  0  0  0  0
  9 26  1  0  0  0  0
 10 15  1  0  0  0  0
 10 17  1  0  0  0  0
 10 37  1  0  0  0  0
 11 15  1  0  0  0  0
 11 38  1  0  0  0  0
 11 39  1  0  0  0  0
 12 13  1  0  0  0  0
 12 22  2  0  0  0  0
 13 14  1  0  0  0  0
 13 23  1  0  0  0  0
 13 40  1  0  0  0  0
 14 20  1  0  0  0  0
 14 27  1  0  0  0  0
 14 31  1  0  0  0  0
 15 41  1  0  0  0  0
 15 42  1  0  0  0  0
 16 20  1  0  0  0  0
 16 43  1  0  0  0  0
 16 44  1  0  0  0  0
 17 25  1  0  0  0  0
 17 32  1  0  0  0  0
 17 33  1  0  0  0  0
 18 22  1  0  0  0  0
 18 45  1  0  0  0  0
 18 46  1  0  0  0  0
 19 28  1  0  0  0  0
 19 47  1  0  0  0  0
 19 48  1  0  0  0  0
 20 49  1  0  0  0  0
 21 50  1  0  0  0  0
 21 51  1  0  0  0  0
 21 52  1  0  0  0  0
 22 53  1  0  0  0  0
 23 29  1  0  0  0  0
 23 54  1  0  0  0  0
 23 55  1  0  0  0  0
 24 56  1  0  0  0  0
 24 57  1  0  0  0  0
 24 58  1  0  0  0  0
 25 28  1  0  0  0  0
 25 59  1  0  0  0  0
 26 61  1  0  0  0  0
 26 62  1  0  0  0  0
 26 63  1  0  0  0  0
 27 30  1  0  0  0  0
 27 60  1  0  0  0  0
 28 64  1  0  0  0  0
 28 65  1  0  0  0  0
 29 30  1  0  0  0  0
 29 34  1  0  0  0  0
 29 35  1  0  0  0  0
 30 66  1  0  0  0  0
 31 67  1  0  0  0  0
 31 68  1  0  0  0  0
 32 69  1  0  0  0  0
 32 70  1  0  0  0  0
 32 71  1  0  0  0  0
 33 72  1  0  0  0  0
 33 73  1  0  0  0  0
 33 74  1  0  0  0  0
 34 76  1  0  0  0  0
 34 77  1  0  0  0  0
 34 78  1  0  0  0  0
 35 79  1  0  0  0  0
 35 80  1  0  0  0  0
 35 81  1  0  0  0  0
M  END
> <PUBCHEM_COMPOUND_CID>
15558434

> <PUBCHEM_CONFORMER_RMSD>
0.8

> <PUBCHEM_CONFORMER_DIVERSEORDER>
1
10
22
2
4
13
27
20
23
21
15
17
9
19
24
28
16
3
8
7
11
26
5
6
25
18
14
12

> <PUBCHEM_MMFF94_PARTIAL_CHARGES>
21
1 -0.68
12 -0.28
13 0.14
18 0.14
2 -0.68
20 0.28
22 -0.29
25 0.28
27 0.28
3 -0.68
30 0.28
31 0.28
4 -0.68
5 -0.68
53 0.15
75 0.4
8 0.14
82 0.4
83 0.4
84 0.4
85 0.4

> <PUBCHEM_EFFECTIVE_ROTOR_COUNT>
3.6

> <PUBCHEM_PHARMACOPHORE_FEATURES>
17
1 1 acceptor
1 1 donor
1 2 acceptor
1 2 donor
1 3 acceptor
1 3 donor
1 4 acceptor
1 4 donor
1 5 acceptor
1 5 donor
3 17 32 33 hydrophobe
3 29 34 35 hydrophobe
6 13 14 23 27 29 30 rings
6 6 7 8 12 18 22 rings
6 6 7 9 10 11 15 rings
6 8 12 13 14 16 20 rings
6 9 10 17 19 25 28 rings

> <PUBCHEM_HEAVY_ATOM_COUNT>
35

> <PUBCHEM_ATOM_DEF_STEREO_COUNT>
7

> <PUBCHEM_ATOM_UDEF_STEREO_COUNT>
4

> <PUBCHEM_BOND_DEF_STEREO_COUNT>
0

> <PUBCHEM_BOND_UDEF_STEREO_COUNT>
0

> <PUBCHEM_ISOTOPIC_ATOM_COUNT>
0

> <PUBCHEM_COMPONENT_COUNT>
1

> <PUBCHEM_CACTVS_TAUTO_COUNT>
1

> <PUBCHEM_CONFORMER_ID>
00ED672200000001

> <PUBCHEM_MMFF94_ENERGY>
172.5135

> <PUBCHEM_FEATURE_SELFOVERLAP>
86.368

> <PUBCHEM_SHAPE_FINGERPRINT>
10554248 39 18340472375608715263
10595046 47 18409446999098086529
10670039 82 17131562660620506688
10906281 52 17917727798533706543
11007060 377 18335984276676707755
11488393 25 15409793378986234084
11963148 33 17632568366548116591
11991303 11 16773510079195263397
12107183 9 17905041448145320201
12166972 35 18273214222566634129
12236239 1 18408321077531868991
12596602 18 18259985989841090531
12788726 201 18131071498015231729
13224815 77 17917718997902838232
13533116 47 17967808293741509922
13583140 156 17967822660396071795
14528608 73 18272652367687162340
14790565 3 18343586256440858984
15082195 135 17775568641168858628
15183329 4 18202844349107645225
15276724 80 18041836217112034925
15352257 5 10879990272392139125
1577012 14 18411412904730127213
15788980 27 18343584027785264651
15840311 113 18259985955549963189
17349148 13 17561081406422955483
18608769 82 18269839886428029915
18681886 176 17917708033157449152
19319366 153 18410285939424164018
1979834 28 14201389474344811568
20511986 3 18339911692875721028
21033648 29 17530962527057892520
22149856 69 17489599939620295403
22393880 68 17845930865433186444
23522609 53 17915205544529815857
23559900 14 17702653492886935961
23569914 2 16956141159672377141
255183 451 18054793871889333886
27425 322 17023750177214092536
2838139 119 18272650168727340389
3004659 81 18341328916409337064
32027 91 17241316954729180394
335352 9 18341618092953564582
34797466 226 14476950203589235139
3633792 109 18261106336043813921
394071 54 17095245843231881652
397830 11 16878805918500098673
4058900 60 18409737252518951938
4073 2 18041001803228098938
4098825 35 18260825982665724581
4149490 64 18040152920222290475
4325135 7 18131351904114920781
4340502 62 17967812781971661122
474 4 18115030818184642888
504579 68 18342185483449723316
5104073 3 18409452470886234025
6086070 43 17561360711972008424
6328613 192 18409730685661350781
70251023 43 17533206463345804042

> <PUBCHEM_SHAPE_MULTIPOLES>
690.94
16.85
2.59
1.65
8.45
0.35
-0.04
4.77
3.68
-2.12
-0.12
0.05
-0.26
-1.43

> <PUBCHEM_SHAPE_SELFOVERLAP>
1463.707

> <PUBCHEM_SHAPE_VOLUME>
380.1

> <PUBCHEM_COORDINATE_TYPE>
2
5
10

$$$$
