10091887
  -OEChem-02172602533D

 31 32  0     0  0  0  0  0  0999 V2000
    4.5934   -1.8720    0.0012 Br  0  0  0  0  0  0  0  0  0  0  0  0
    5.6413    1.6626    0.0047 Br  0  0  0  0  0  0  0  0  0  0  0  0
   -2.7422   -1.5289   -0.0060 O   0  0  0  0  0  0  0  0  0  0  0  0
    1.3988   -2.6240   -0.0022 O   0  0  0  0  0  0  0  0  0  0  0  0
   -1.8583    0.6129   -0.0040 N   0  0  0  0  0  0  0  0  0  0  0  0
    0.3795    1.2972   -0.0015 N   0  0  0  0  0  0  0  0  0  0  0  0
    2.7466    1.7587    0.0015 N   0  0  0  0  0  0  0  0  0  0  0  0
   -0.2512   -1.0123   -0.0032 N   0  0  0  0  0  0  0  0  0  0  0  0
   -4.3082    0.3345   -0.0053 C   0  0  0  0  0  0  0  0  0  0  0  0
   -2.9044   -0.3084   -0.0056 C   0  0  0  0  0  0  0  0  0  0  0  0
   -5.3888   -0.7567    0.0343 C   0  0  0  0  0  0  0  0  0  0  0  0
   -4.4624    1.2221    1.2431 C   0  0  0  0  0  0  0  0  0  0  0  0
   -4.4869    1.2115   -1.2540 C   0  0  0  0  0  0  0  0  0  0  0  0
    1.6688    0.9346   -0.0003 C   0  0  0  0  0  0  0  0  0  0  0  0
   -0.5458    0.2650   -0.0029 C   0  0  0  0  0  0  0  0  0  0  0  0
    2.0735   -0.3744   -0.0006 C   0  0  0  0  0  0  0  0  0  0  0  0
    3.4876   -0.3553    0.0010 C   0  0  0  0  0  0  0  0  0  0  0  0
    1.0810   -1.4405   -0.0023 C   0  0  0  0  0  0  0  0  0  0  0  0
    3.8778    0.9732    0.0022 C   0  0  0  0  0  0  0  0  0  0  0  0
   -5.3194   -1.4119   -0.8417 H   0  0  0  0  0  0  0  0  0  0  0  0
   -6.3946   -0.3221    0.0462 H   0  0  0  0  0  0  0  0  0  0  0  0
   -5.2854   -1.3871    0.9249 H   0  0  0  0  0  0  0  0  0  0  0  0
   -4.2496    0.6531    2.1557 H   0  0  0  0  0  0  0  0  0  0  0  0
   -5.4820    1.6162    1.3234 H   0  0  0  0  0  0  0  0  0  0  0  0
   -3.7835    2.0815    1.2310 H   0  0  0  0  0  0  0  0  0  0  0  0
   -4.3076    0.6297   -2.1654 H   0  0  0  0  0  0  0  0  0  0  0  0
   -5.5039    1.6163   -1.3092 H   0  0  0  0  0  0  0  0  0  0  0  0
   -3.7960    2.0610   -1.2702 H   0  0  0  0  0  0  0  0  0  0  0  0
   -2.0701    1.6056   -0.0059 H   0  0  0  0  0  0  0  0  0  0  0  0
    0.0744    2.2652   -0.0012 H   0  0  0  0  0  0  0  0  0  0  0  0
    2.7310    2.7696    0.0021 H   0  0  0  0  0  0  0  0  0  0  0  0
  1 17  1  0  0  0  0
  2 19  1  0  0  0  0
  3 10  2  0  0  0  0
  4 18  2  0  0  0  0
  5 10  1  0  0  0  0
  5 15  1  0  0  0  0
  5 29  1  0  0  0  0
  6 14  1  0  0  0  0
  6 15  1  0  0  0  0
  6 30  1  0  0  0  0
  7 14  1  0  0  0  0
  7 19  1  0  0  0  0
  7 31  1  0  0  0  0
  8 15  2  0  0  0  0
  8 18  1  0  0  0  0
  9 10  1  0  0  0  0
  9 11  1  0  0  0  0
  9 12  1  0  0  0  0
  9 13  1  0  0  0  0
 11 20  1  0  0  0  0
 11 21  1  0  0  0  0
 11 22  1  0  0  0  0
 12 23  1  0  0  0  0
 12 24  1  0  0  0  0
 12 25  1  0  0  0  0
 13 26  1  0  0  0  0
 13 27  1  0  0  0  0
 13 28  1  0  0  0  0
 14 16  2  0  0  0  0
 16 17  1  0  0  0  0
 16 18  1  0  0  0  0
 17 19  2  0  0  0  0
M  END
> <PUBCHEM_COMPOUND_CID>
10091887

> <PUBCHEM_CONFORMER_RMSD>
0.6

> <PUBCHEM_CONFORMER_DIVERSEORDER>
1
2

> <PUBCHEM_MMFF94_PARTIAL_CHARGES>
19
1 -0.06
10 0.57
14 -0.07
15 0.56
16 -0.09
17 0.06
18 0.87
19 -0.09
2 -0.06
29 0.37
3 -0.57
30 0.4
31 0.27
4 -0.57
5 -0.49
6 -0.53
7 0.03
8 -0.66
9 0.06

> <PUBCHEM_EFFECTIVE_ROTOR_COUNT>
3

> <PUBCHEM_PHARMACOPHORE_FEATURES>
12
1 1 hydrophobe
1 2 hydrophobe
1 3 acceptor
1 4 acceptor
1 5 donor
1 6 donor
1 7 cation
1 7 donor
1 8 donor
4 9 11 12 13 hydrophobe
5 7 14 16 17 19 rings
6 6 8 14 15 16 18 rings

> <PUBCHEM_HEAVY_ATOM_COUNT>
19

> <PUBCHEM_ATOM_DEF_STEREO_COUNT>
0

> <PUBCHEM_ATOM_UDEF_STEREO_COUNT>
0

> <PUBCHEM_BOND_DEF_STEREO_COUNT>
0

> <PUBCHEM_BOND_UDEF_STEREO_COUNT>
0

> <PUBCHEM_ISOTOPIC_ATOM_COUNT>
0

> <PUBCHEM_COMPONENT_COUNT>
1

> <PUBCHEM_CACTVS_TAUTO_COUNT>
39

> <PUBCHEM_CONFORMER_ID>
0099FD6F00000001

> <PUBCHEM_MMFF94_ENERGY>
43.7275

> <PUBCHEM_FEATURE_SELFOVERLAP>
61.16

> <PUBCHEM_SHAPE_FINGERPRINT>
10411042 1 17834395619071046422
11471102 20 18411134723476315940
12107183 9 17766004895851854865
12236239 1 17989207027927677921
12403259 415 18113898221606154084
13073987 5 18341898484991959073
13675066 3 17967256394638317641
13862211 1 18337669699026812610
14790565 3 18192719053918125572
15081414 286 18410018732286495772
15196674 1 18410573989473013063
15375358 24 18187083949197532515
15536298 74 18342739602786684246
15788980 27 17822010887091982571
1601671 61 18334295396593670100
17834072 33 18272647965693681367
18186145 218 18408887330040613557
200 152 18131630075971493865
20612939 158 18410855430290211724
20645477 70 18342460309542850302
21267235 1 18340214007065796527
21279426 13 18265331716179464156
21452121 103 18341040883439760136
21709351 56 18335133219736659589
23402539 116 18200589315136100628
23402655 69 18272933842858837612
23557571 272 16805885065889014303
23559900 14 18342458158370434976
293599 30 18338518646641584988
29717793 49 17846494786450078749
300161 21 18410004464172594412
335352 9 18338798914437184150
33824 294 18408602552682711530
34797466 226 15697718215681183136
34934 24 18410568483630758335
350125 39 18338235969279694732
3545911 37 18411420647775537497
4072396 5 18335686222988908818
4214541 1 18410575068116277409
42630746 31 18412543211247113158
474 4 18335142037262469112
4990 188 17918003775582844700
5104073 3 18410013234305870739
542803 24 17418377987013929553
59755656 215 18409451371786055910
602551 16 16009329698038967257
633830 44 18343586248098747302
7495541 125 13768218228239632156
77779 3 18410576193102238411
90127 26 17676210147775609869
9709674 26 18408609162711479859

> <PUBCHEM_SHAPE_MULTIPOLES>
371.23
12.51
2.12
0.78
4.27
0.67
0
-2.83
0.03
-2.1
0
0.72
-0.21
0.01

> <PUBCHEM_SHAPE_SELFOVERLAP>
765.905

> <PUBCHEM_SHAPE_VOLUME>
221

> <PUBCHEM_COORDINATE_TYPE>
2
5
10

$$$$
