10091883
  -OEChem-02172602533D

 44 46  0     1  0  0  0  0  0999 V2000
    4.0552    4.0296    1.4540 Cl  0  0  0  0  0  0  0  0  0  0  0  0
   -3.7394    1.5089   -0.5247 S   0  0  0  0  0  0  0  0  0  0  0  0
    2.0924   -1.6828    0.7569 O   0  0  0  0  0  0  0  0  0  0  0  0
   -6.0944   -1.5158   -0.0786 O   0  0  0  0  0  0  0  0  0  0  0  0
   -5.8507    3.0052   -0.9888 O   0  0  0  0  0  0  0  0  0  0  0  0
    3.8830   -1.0982   -1.3778 N   0  0  0  0  0  0  0  0  0  0  0  0
   -6.1761    0.7439   -0.5629 N   0  0  0  0  0  0  0  0  0  0  0  0
    4.5728    0.1967    0.4999 N   0  0  0  0  0  0  0  0  0  0  0  0
   -4.0332   -0.2636   -0.2409 C   0  0  1  0  0  0  0  0  0  0  0  0
   -3.4536   -0.7020    1.0922 C   0  0  0  0  0  0  0  0  0  0  0  0
   -1.9719   -0.9636    1.0031 C   0  0  0  0  0  0  0  0  0  0  0  0
   -5.5341   -0.4431   -0.2768 C   0  0  0  0  0  0  0  0  0  0  0  0
    3.9089   -2.3566   -0.6693 C   0  0  0  0  0  0  0  0  0  0  0  0
   -1.0810    0.0711    1.2461 C   0  0  0  0  0  0  0  0  0  0  0  0
   -1.5232   -2.2352    0.6788 C   0  0  0  0  0  0  0  0  0  0  0  0
    2.5190   -2.6928   -0.1561 C   0  0  0  0  0  0  0  0  0  0  0  0
    0.7546   -1.4457    0.8375 C   0  0  0  0  0  0  0  0  0  0  0  0
    0.2901   -0.1713    1.1627 C   0  0  0  0  0  0  0  0  0  0  0  0
   -0.1521   -2.4776    0.5954 C   0  0  0  0  0  0  0  0  0  0  0  0
   -5.4362    1.8842   -0.7344 C   0  0  0  0  0  0  0  0  0  0  0  0
    3.9287    0.1251   -0.6952 C   0  0  0  0  0  0  0  0  0  0  0  0
    3.8213   -1.1198   -2.8397 C   0  0  0  0  0  0  0  0  0  0  0  0
    3.3026    1.2211   -1.2841 C   0  0  0  0  0  0  0  0  0  0  0  0
    3.3389    2.4417   -0.6189 C   0  0  0  0  0  0  0  0  0  0  0  0
    4.5872    1.3996    1.1168 C   0  0  0  0  0  0  0  0  0  0  0  0
    3.9914    2.5411    0.6049 C   0  0  0  0  0  0  0  0  0  0  0  0
   -3.6163   -0.8270   -1.0836 H   0  0  0  0  0  0  0  0  0  0  0  0
   -3.6666    0.0203    1.8926 H   0  0  0  0  0  0  0  0  0  0  0  0
   -3.9405   -1.6276    1.4301 H   0  0  0  0  0  0  0  0  0  0  0  0
    4.6179   -2.3156    0.1664 H   0  0  0  0  0  0  0  0  0  0  0  0
    4.2562   -3.1677   -1.3201 H   0  0  0  0  0  0  0  0  0  0  0  0
   -1.4260    1.0649    1.5151 H   0  0  0  0  0  0  0  0  0  0  0  0
   -2.2213   -3.0464    0.4919 H   0  0  0  0  0  0  0  0  0  0  0  0
    1.8474   -2.7674   -1.0219 H   0  0  0  0  0  0  0  0  0  0  0  0
    2.5440   -3.6561    0.3660 H   0  0  0  0  0  0  0  0  0  0  0  0
    0.9915    0.6355    1.3565 H   0  0  0  0  0  0  0  0  0  0  0  0
    0.1672   -3.4901    0.3672 H   0  0  0  0  0  0  0  0  0  0  0  0
   -7.1882    0.7735   -0.6334 H   0  0  0  0  0  0  0  0  0  0  0  0
    4.1169   -2.0975   -3.2359 H   0  0  0  0  0  0  0  0  0  0  0  0
    2.8007   -0.9254   -3.1857 H   0  0  0  0  0  0  0  0  0  0  0  0
    4.5030   -0.3826   -3.2790 H   0  0  0  0  0  0  0  0  0  0  0  0
    2.7729    1.1639   -2.2288 H   0  0  0  0  0  0  0  0  0  0  0  0
    2.8514    3.3058   -1.0626 H   0  0  0  0  0  0  0  0  0  0  0  0
    5.1111    1.4114    2.0677 H   0  0  0  0  0  0  0  0  0  0  0  0
  1 26  1  0  0  0  0
  2  9  1  0  0  0  0
  2 20  1  0  0  0  0
  3 16  1  0  0  0  0
  3 17  1  0  0  0  0
  4 12  2  0  0  0  0
  5 20  2  0  0  0  0
  6 13  1  0  0  0  0
  6 21  1  0  0  0  0
  6 22  1  0  0  0  0
  7 12  1  0  0  0  0
  7 20  1  0  0  0  0
  7 38  1  0  0  0  0
  8 21  2  0  0  0  0
  8 25  1  0  0  0  0
  9 10  1  0  0  0  0
  9 12  1  0  0  0  0
  9 27  1  0  0  0  0
 10 11  1  0  0  0  0
 10 28  1  0  0  0  0
 10 29  1  0  0  0  0
 11 14  2  0  0  0  0
 11 15  1  0  0  0  0
 13 16  1  0  0  0  0
 13 30  1  0  0  0  0
 13 31  1  0  0  0  0
 14 18  1  0  0  0  0
 14 32  1  0  0  0  0
 15 19  2  0  0  0  0
 15 33  1  0  0  0  0
 16 34  1  0  0  0  0
 16 35  1  0  0  0  0
 17 18  2  0  0  0  0
 17 19  1  0  0  0  0
 18 36  1  0  0  0  0
 19 37  1  0  0  0  0
 21 23  1  0  0  0  0
 22 39  1  0  0  0  0
 22 40  1  0  0  0  0
 22 41  1  0  0  0  0
 23 24  2  0  0  0  0
 23 42  1  0  0  0  0
 24 26  1  0  0  0  0
 24 43  1  0  0  0  0
 25 26  2  0  0  0  0
 25 44  1  0  0  0  0
M  END
> <PUBCHEM_COMPOUND_CID>
10091883

> <PUBCHEM_CONFORMER_RMSD>
1.2

> <PUBCHEM_CONFORMER_DIVERSEORDER>
1
83
59
18
130
149
34
148
124
196
42
146
216
32
155
48
20
122
186
77
195
218
105
35
69
113
162
178
141
27
95
74
217
222
25
197
81
180
10
184
211
157
221
64
227
75
119
90
103
102
213
117
191
194
167
7
6
147
174
192
226
87
100
168
144
138
85
62
143
208
132
101
203
118
112
115
206
185
19
219
181
29
188
78
56
151
158
160
126
150
109
43
80
110
210
93
66
172
76
137
153
92
133
200
49
169
86
179
82
183
154
170
12
5
205
116
98
55
198
99
209
114
2
21
223
41
79
171
134
73
60
145
67
91
8
46
224
70
65
135
88
17
214
182
72
166
159
189
193
152
39
94
177
44
202
45
111
16
187
120
57
37
9
161
28
121
225
13
47
36
53
156
163
104
127
97
40
71
3
139
207
164
96
38
220
215
136
23
4
68
142
30
129
61
128
11
33
201
22
51
63
199
106
54
131
31
89
175
123
125
165
108
176
26
107
204
212
14
52
190
50
15
58
140
24
173
84

> <PUBCHEM_MMFF94_PARTIAL_CHARGES>
34
1 -0.18
10 0.14
11 -0.14
12 0.57
13 0.37
14 -0.15
15 -0.15
16 0.28
17 0.08
18 -0.15
19 -0.15
2 -0.37
20 0.77
21 0.41
22 0.37
23 -0.15
24 -0.15
25 0.16
26 0.18
3 -0.36
32 0.15
33 0.15
36 0.15
37 0.15
38 0.37
4 -0.57
42 0.15
43 0.15
44 0.15
5 -0.57
6 -0.84
7 -0.49
8 -0.62
9 0.29

> <PUBCHEM_EFFECTIVE_ROTOR_COUNT>
7.6

> <PUBCHEM_PHARMACOPHORE_FEATURES>
7
1 3 acceptor
1 4 acceptor
1 7 donor
3 6 8 21 cation
5 2 7 9 12 20 rings
6 11 14 15 17 18 19 rings
6 8 21 23 24 25 26 rings

> <PUBCHEM_HEAVY_ATOM_COUNT>
26

> <PUBCHEM_ATOM_DEF_STEREO_COUNT>
0

> <PUBCHEM_ATOM_UDEF_STEREO_COUNT>
1

> <PUBCHEM_BOND_DEF_STEREO_COUNT>
0

> <PUBCHEM_BOND_UDEF_STEREO_COUNT>
0

> <PUBCHEM_ISOTOPIC_ATOM_COUNT>
0

> <PUBCHEM_COMPONENT_COUNT>
1

> <PUBCHEM_CACTVS_TAUTO_COUNT>
3

> <PUBCHEM_CONFORMER_ID>
0099FD6B00000001

> <PUBCHEM_MMFF94_ENERGY>
79.1279

> <PUBCHEM_FEATURE_SELFOVERLAP>
35.522

> <PUBCHEM_SHAPE_FINGERPRINT>
11595378 159 14129340646255792663
11796584 16 12103567438108929091
12422481 6 16878207693716264917
12633257 1 15068616140853023274
12769317 202 18129663131548426176
12892183 10 10809348853525591831
14187579 7 18341892953396491145
14251764 38 18115030817530898781
14528608 73 18335139774247389711
14739800 52 18041826381388331739
16067690 210 15502663667555878589
17844677 252 18412548678545217755
17959699 21 18334296461460449971
1813 80 14261629521681076475
20715895 44 18409441492797104080
21033648 29 17968106325494983731
21388113 180 18266456692742925016
21968339 14 17917706925040309512
22393880 68 18409451358463609263
23559900 14 18343311362029837970
2838139 119 18334566950111050203
3117164 225 8285661813388239911
34797466 226 18202566194198566399
44317340 157 18342745104877141427
495365 180 18059573663440034224
513532 50 18341615902293455366
53794403 172 18042698371329626084
550186 83 16515683329908713900

> <PUBCHEM_SHAPE_MULTIPOLES>
508.24
14.85
3.85
1.63
17.82
2.23
0.7
8.04
4.27
-3.38
-0.48
-1.66
-0.01
3.37

> <PUBCHEM_SHAPE_SELFOVERLAP>
1060.914

> <PUBCHEM_SHAPE_VOLUME>
291.6

> <PUBCHEM_COORDINATE_TYPE>
2
5
10

$$$$
