14239538
  -OEChem-02172602283D

 62 64  0     1  0  0  0  0  0999 V2000
   -2.0698    2.6156    0.1924 O   0  0  0  0  0  0  0  0  0  0  0  0
   -2.6046    0.4089   -1.1656 O   0  0  0  0  0  0  0  0  0  0  0  0
    0.7437   -2.6651    1.5634 O   0  0  0  0  0  0  0  0  0  0  0  0
    1.8562   -0.1175    0.2652 O   0  0  0  0  0  0  0  0  0  0  0  0
   -4.4504    1.7956   -1.2494 O   0  0  0  0  0  0  0  0  0  0  0  0
    2.7798    1.3782    1.7521 O   0  0  0  0  0  0  0  0  0  0  0  0
   -1.8555   -0.9954    0.7309 C   0  0  1  0  0  0  0  0  0  0  0  0
   -0.3990   -0.9849    0.1659 C   0  0  2  0  0  0  0  0  0  0  0  0
   -2.4233    1.4718    0.9788 C   0  0  2  0  0  0  0  0  0  0  0  0
   -1.0399    2.0693    1.0292 C   0  0  1  0  0  0  0  0  0  0  0  0
   -2.7234    0.1995    0.2406 C   0  0  1  0  0  0  0  0  0  0  0  0
    0.0857   -2.4604    0.3146 C   0  0  2  0  0  0  0  0  0  0  0  0
    0.5269    0.1103    0.7375 C   0  0  2  0  0  0  0  0  0  0  0  0
   -2.3598   -2.3288    0.1352 C   0  0  0  0  0  0  0  0  0  0  0  0
    0.1222    1.5165    0.2784 C   0  0  0  0  0  0  0  0  0  0  0  0
   -1.2010   -3.3126    0.3025 C   0  0  0  0  0  0  0  0  0  0  0  0
   -1.9341   -1.0935    2.2757 C   0  0  0  0  0  0  0  0  0  0  0  0
    1.0338   -2.9101   -0.7999 C   0  0  0  0  0  0  0  0  0  0  0  0
   -0.7173    2.9356    2.1975 C   0  0  0  0  0  0  0  0  0  0  0  0
    1.4490   -4.3638   -0.5934 C   0  0  0  0  0  0  0  0  0  0  0  0
    0.3782   -2.7250   -2.1655 C   0  0  0  0  0  0  0  0  0  0  0  0
   -3.3690    1.4170   -1.6789 C   0  0  0  0  0  0  0  0  0  0  0  0
    2.7956    0.7728    0.6898 C   0  0  0  0  0  0  0  0  0  0  0  0
   -2.6845    2.0129   -2.8715 C   0  0  0  0  0  0  0  0  0  0  0  0
    3.8606    0.9082   -0.3499 C   0  0  0  0  0  0  0  0  0  0  0  0
    4.1853   -0.2872   -1.1959 C   0  0  0  0  0  0  0  0  0  0  0  0
    4.4677    2.1074   -0.4159 C   0  0  0  0  0  0  0  0  0  0  0  0
    5.5470    2.5247   -1.3640 C   0  0  0  0  0  0  0  0  0  0  0  0
   -0.4905   -0.7703   -0.9018 H   0  0  0  0  0  0  0  0  0  0  0  0
   -3.0864    1.6252    1.8217 H   0  0  0  0  0  0  0  0  0  0  0  0
   -3.7728   -0.0606    0.4394 H   0  0  0  0  0  0  0  0  0  0  0  0
    0.5515    0.0554    1.8310 H   0  0  0  0  0  0  0  0  0  0  0  0
   -2.5874   -2.2164   -0.9321 H   0  0  0  0  0  0  0  0  0  0  0  0
   -3.2701   -2.6928    0.6240 H   0  0  0  0  0  0  0  0  0  0  0  0
    0.9360    2.2453    0.3464 H   0  0  0  0  0  0  0  0  0  0  0  0
   -0.0908    1.4894   -0.7990 H   0  0  0  0  0  0  0  0  0  0  0  0
   -1.3130   -3.8520    1.2518 H   0  0  0  0  0  0  0  0  0  0  0  0
   -1.2693   -4.0747   -0.4773 H   0  0  0  0  0  0  0  0  0  0  0  0
   -1.3835   -0.2948    2.7791 H   0  0  0  0  0  0  0  0  0  0  0  0
   -2.9794   -1.0138    2.6005 H   0  0  0  0  0  0  0  0  0  0  0  0
   -1.5803   -2.0466    2.6750 H   0  0  0  0  0  0  0  0  0  0  0  0
    1.9571   -2.3241   -0.7707 H   0  0  0  0  0  0  0  0  0  0  0  0
   -0.0967    3.7845    1.8915 H   0  0  0  0  0  0  0  0  0  0  0  0
   -1.6157    3.3413    2.6755 H   0  0  0  0  0  0  0  0  0  0  0  0
   -0.1673    2.3662    2.9538 H   0  0  0  0  0  0  0  0  0  0  0  0
    0.3526   -2.0994    2.2443 H   0  0  0  0  0  0  0  0  0  0  0  0
    2.1950   -4.6482   -1.3451 H   0  0  0  0  0  0  0  0  0  0  0  0
    1.9150   -4.5204    0.3848 H   0  0  0  0  0  0  0  0  0  0  0  0
    0.6196   -5.0695   -0.6928 H   0  0  0  0  0  0  0  0  0  0  0  0
    0.3539   -1.6753   -2.4720 H   0  0  0  0  0  0  0  0  0  0  0  0
   -0.6305   -3.1340   -2.2500 H   0  0  0  0  0  0  0  0  0  0  0  0
    0.9797   -3.2301   -2.9318 H   0  0  0  0  0  0  0  0  0  0  0  0
   -2.6075    1.2644   -3.6640 H   0  0  0  0  0  0  0  0  0  0  0  0
   -1.6934    2.3801   -2.5945 H   0  0  0  0  0  0  0  0  0  0  0  0
   -3.2733    2.8567   -3.2425 H   0  0  0  0  0  0  0  0  0  0  0  0
    5.1602   -0.2117   -1.6837 H   0  0  0  0  0  0  0  0  0  0  0  0
    4.2186   -1.1917   -0.5787 H   0  0  0  0  0  0  0  0  0  0  0  0
    3.4245   -0.4236   -1.9711 H   0  0  0  0  0  0  0  0  0  0  0  0
    4.1565    2.8989    0.2643 H   0  0  0  0  0  0  0  0  0  0  0  0
    5.2582    3.4593   -1.8558 H   0  0  0  0  0  0  0  0  0  0  0  0
    5.7460    1.7929   -2.1496 H   0  0  0  0  0  0  0  0  0  0  0  0
    6.4758    2.7033   -0.8139 H   0  0  0  0  0  0  0  0  0  0  0  0
  1  9  1  0  0  0  0
  1 10  1  0  0  0  0
  2 11  1  0  0  0  0
  2 22  1  0  0  0  0
  3 12  1  0  0  0  0
  3 46  1  0  0  0  0
  4 13  1  0  0  0  0
  4 23  1  0  0  0  0
  5 22  2  0  0  0  0
  6 23  2  0  0  0  0
  7  8  1  0  0  0  0
  7 11  1  0  0  0  0
  7 14  1  0  0  0  0
  7 17  1  0  0  0  0
  8 12  1  0  0  0  0
  8 13  1  0  0  0  0
  8 29  1  0  0  0  0
  9 10  1  0  0  0  0
  9 11  1  0  0  0  0
  9 30  1  0  0  0  0
 10 15  1  0  0  0  0
 10 19  1  0  0  0  0
 11 31  1  0  0  0  0
 12 16  1  0  0  0  0
 12 18  1  0  0  0  0
 13 15  1  0  0  0  0
 13 32  1  0  0  0  0
 14 16  1  0  0  0  0
 14 33  1  0  0  0  0
 14 34  1  0  0  0  0
 15 35  1  0  0  0  0
 15 36  1  0  0  0  0
 16 37  1  0  0  0  0
 16 38  1  0  0  0  0
 17 39  1  0  0  0  0
 17 40  1  0  0  0  0
 17 41  1  0  0  0  0
 18 20  1  0  0  0  0
 18 21  1  0  0  0  0
 18 42  1  0  0  0  0
 19 43  1  0  0  0  0
 19 44  1  0  0  0  0
 19 45  1  0  0  0  0
 20 47  1  0  0  0  0
 20 48  1  0  0  0  0
 20 49  1  0  0  0  0
 21 50  1  0  0  0  0
 21 51  1  0  0  0  0
 21 52  1  0  0  0  0
 22 24  1  0  0  0  0
 23 25  1  0  0  0  0
 24 53  1  0  0  0  0
 24 54  1  0  0  0  0
 24 55  1  0  0  0  0
 25 26  1  0  0  0  0
 25 27  2  0  0  0  0
 26 56  1  0  0  0  0
 26 57  1  0  0  0  0
 26 58  1  0  0  0  0
 27 28  1  0  0  0  0
 27 59  1  0  0  0  0
 28 60  1  0  0  0  0
 28 61  1  0  0  0  0
 28 62  1  0  0  0  0
M  END
> <PUBCHEM_COMPOUND_CID>
14239538

> <PUBCHEM_CONFORMER_RMSD>
0.8

> <PUBCHEM_CONFORMER_DIVERSEORDER>
1
10
5
3
7
9
6
8
4
2

> <PUBCHEM_MMFF94_PARTIAL_CHARGES>
23
1 -0.3
10 -0.04
11 0.38
12 0.28
13 0.28
15 0.09
19 0.09
2 -0.43
22 0.66
23 0.71
24 0.06
25 -0.12
26 0.14
27 -0.29
28 0.14
3 -0.68
30 0.1
4 -0.43
46 0.4
5 -0.57
59 0.15
6 -0.57
9 -0.05

> <PUBCHEM_EFFECTIVE_ROTOR_COUNT>
7.4

> <PUBCHEM_PHARMACOPHORE_FEATURES>
10
1 1 acceptor
1 26 hydrophobe
1 28 hydrophobe
1 3 acceptor
1 3 donor
1 5 acceptor
1 6 acceptor
3 18 20 21 hydrophobe
5 7 8 12 14 16 rings
7 7 8 9 10 11 13 15 rings

> <PUBCHEM_HEAVY_ATOM_COUNT>
28

> <PUBCHEM_ATOM_DEF_STEREO_COUNT>
7

> <PUBCHEM_ATOM_UDEF_STEREO_COUNT>
0

> <PUBCHEM_BOND_DEF_STEREO_COUNT>
1

> <PUBCHEM_BOND_UDEF_STEREO_COUNT>
0

> <PUBCHEM_ISOTOPIC_ATOM_COUNT>
0

> <PUBCHEM_COMPONENT_COUNT>
1

> <PUBCHEM_CACTVS_TAUTO_COUNT>
1

> <PUBCHEM_CONFORMER_ID>
00D9473200000001

> <PUBCHEM_MMFF94_ENERGY>
104.0841

> <PUBCHEM_FEATURE_SELFOVERLAP>
50.767

> <PUBCHEM_SHAPE_FINGERPRINT>
11578080 2 17461740397440395719
12035759 4 17916569947811352535
12156800 1 16403304565494210178
12173636 292 18341910575314847696
12714826 92 18117558654718215441
12788726 201 17972872850531257826
13140716 1 18271811250019193850
13149001 5 17912341406569573545
13383661 66 17056669619379032455
133893 2 18049444742695963040
13583140 156 17385727959057050480
13761468 95 18115892766423854468
13911987 19 18340491161263352573
14251757 5 17978522145859466076
14468879 13 17458625554082493397
14790565 3 18269575904325940193
15163728 17 17606118381659645269
15463212 79 17823125895268127280
16752209 62 18191292974124067226
16945 1 18199177404556001931
17492 54 18190436420660082743
17980427 23 17693632854473712762
18981168 100 17171267039101002783
20739085 24 14890195756246943353
20775438 99 16836526539204642871
22907989 373 18264768942245991948
23114952 82 18047178662305974893
23419403 2 17901695703603992539
23558518 356 17981892934550522369
23559900 14 18342462539416496416
238 59 18129655301411348206
2748010 2 18125708235193402537
35225 105 18266731562238613758
352729 6 18412823569152571138
394222 165 17896021166478347921
4409770 3 18267021846166841766
469060 322 17460615833205215169
5262128 65 17553752968076668007
59755656 215 18340781389784325839
81228 2 17553476290552449570
9981440 41 18412256216730928210

> <PUBCHEM_SHAPE_MULTIPOLES>
541.01
7.18
4.78
2.13
9.64
3.88
0.64
-6.55
3.48
-0.24
0.52
-1.3
-1
1.03

> <PUBCHEM_SHAPE_SELFOVERLAP>
1129.381

> <PUBCHEM_SHAPE_VOLUME>
305.3

> <PUBCHEM_COORDINATE_TYPE>
2
5
10

$$$$
