10115043
  -OEChem-02172602513D

 61 65  0     0  0  0  0  0  0999 V2000
    7.7948   -1.0632   -0.9235 O   0  0  0  0  0  0  0  0  0  0  0  0
    7.6547    1.4943    0.1510 O   0  0  0  0  0  0  0  0  0  0  0  0
    0.3368    1.9324    0.3992 O   0  0  0  0  0  0  0  0  0  0  0  0
    1.7243    0.1068    0.7825 N   0  0  0  0  0  0  0  0  0  0  0  0
   -5.2114   -0.8148   -0.2688 N   0  0  0  0  0  0  0  0  0  0  0  0
   -2.3775   -2.8059    0.3998 N   0  0  0  0  0  0  0  0  0  0  0  0
    3.0290   -1.7833   -0.0563 C   0  0  0  0  0  0  0  0  0  0  0  0
    1.9595   -1.3336    0.9333 C   0  0  0  0  0  0  0  0  0  0  0  0
    2.8854    0.9444    1.0974 C   0  0  0  0  0  0  0  0  0  0  0  0
    4.2578   -0.9106    0.0229 C   0  0  0  0  0  0  0  0  0  0  0  0
    4.1803    0.3942    0.5474 C   0  0  0  0  0  0  0  0  0  0  0  0
    5.4784   -1.3836   -0.4781 C   0  0  0  0  0  0  0  0  0  0  0  0
    5.3355    1.1873    0.5931 C   0  0  0  0  0  0  0  0  0  0  0  0
    0.5168    0.7147    0.4514 C   0  0  0  0  0  0  0  0  0  0  0  0
   -3.0931   -0.4211    0.1649 C   0  0  0  0  0  0  0  0  0  0  0  0
   -4.2821    0.1809   -0.1074 C   0  0  0  0  0  0  0  0  0  0  0  0
    6.6181   -0.5812   -0.4345 C   0  0  0  0  0  0  0  0  0  0  0  0
    6.5475    0.7015    0.1034 C   0  0  0  0  0  0  0  0  0  0  0  0
   -4.6169   -2.0415   -0.1001 C   0  0  0  0  0  0  0  0  0  0  0  0
   -3.2710   -1.8086    0.1760 C   0  0  0  0  0  0  0  0  0  0  0  0
   -0.6256   -0.1633    0.1292 C   0  0  0  0  0  0  0  0  0  0  0  0
   -1.8536    0.2795    0.4021 C   0  0  0  0  0  0  0  0  0  0  0  0
   -4.6228    1.5845   -0.2278 C   0  0  0  0  0  0  0  0  0  0  0  0
   -6.6145   -0.6164   -0.5714 C   0  0  0  0  0  0  0  0  0  0  0  0
   -5.1290   -3.3365   -0.1629 C   0  0  0  0  0  0  0  0  0  0  0  0
   -4.5348    2.2122   -1.4666 C   0  0  0  0  0  0  0  0  0  0  0  0
   -5.0345    2.2949    0.8957 C   0  0  0  0  0  0  0  0  0  0  0  0
   -4.2229   -4.3675    0.0647 C   0  0  0  0  0  0  0  0  0  0  0  0
   -2.8978   -4.0525    0.3335 C   0  0  0  0  0  0  0  0  0  0  0  0
   -4.8616    3.5632   -1.5830 C   0  0  0  0  0  0  0  0  0  0  0  0
   -5.3613    3.6460    0.7792 C   0  0  0  0  0  0  0  0  0  0  0  0
    8.0686   -0.8274   -2.3033 C   0  0  0  0  0  0  0  0  0  0  0  0
    7.4975    2.7939    0.7171 C   0  0  0  0  0  0  0  0  0  0  0  0
   -5.2749    4.2800   -0.4603 C   0  0  0  0  0  0  0  0  0  0  0  0
    2.6359   -1.7278   -1.0789 H   0  0  0  0  0  0  0  0  0  0  0  0
    3.2920   -2.8268    0.1516 H   0  0  0  0  0  0  0  0  0  0  0  0
    1.0529   -1.9265    0.8053 H   0  0  0  0  0  0  0  0  0  0  0  0
    2.2959   -1.4974    1.9654 H   0  0  0  0  0  0  0  0  0  0  0  0
    2.9528    0.9977    2.1906 H   0  0  0  0  0  0  0  0  0  0  0  0
    2.7253    1.9582    0.7146 H   0  0  0  0  0  0  0  0  0  0  0  0
    5.5396   -2.3834   -0.9021 H   0  0  0  0  0  0  0  0  0  0  0  0
    5.2203    2.1775    1.0223 H   0  0  0  0  0  0  0  0  0  0  0  0
   -0.4490   -1.1152   -0.3529 H   0  0  0  0  0  0  0  0  0  0  0  0
   -1.9644    1.2659    0.8496 H   0  0  0  0  0  0  0  0  0  0  0  0
   -7.0698   -0.0638    0.2547 H   0  0  0  0  0  0  0  0  0  0  0  0
   -6.6918   -0.0516   -1.5043 H   0  0  0  0  0  0  0  0  0  0  0  0
   -7.1268   -1.5717   -0.6914 H   0  0  0  0  0  0  0  0  0  0  0  0
   -6.1698   -3.5486   -0.3746 H   0  0  0  0  0  0  0  0  0  0  0  0
   -4.2143    1.6667   -2.3507 H   0  0  0  0  0  0  0  0  0  0  0  0
   -5.1068    1.8142    1.8683 H   0  0  0  0  0  0  0  0  0  0  0  0
   -4.5477   -5.4022    0.0325 H   0  0  0  0  0  0  0  0  0  0  0  0
   -2.1796   -4.8480    0.5131 H   0  0  0  0  0  0  0  0  0  0  0  0
   -4.7942    4.0571   -2.5479 H   0  0  0  0  0  0  0  0  0  0  0  0
   -5.6831    4.2043    1.6534 H   0  0  0  0  0  0  0  0  0  0  0  0
    8.1061    0.2467   -2.5109 H   0  0  0  0  0  0  0  0  0  0  0  0
    7.3103   -1.3054   -2.9316 H   0  0  0  0  0  0  0  0  0  0  0  0
    9.0433   -1.2632   -2.5385 H   0  0  0  0  0  0  0  0  0  0  0  0
    7.2125    2.7428    1.7735 H   0  0  0  0  0  0  0  0  0  0  0  0
    6.8103    3.4107    0.1278 H   0  0  0  0  0  0  0  0  0  0  0  0
    8.4764    3.2830    0.6763 H   0  0  0  0  0  0  0  0  0  0  0  0
   -5.5294    5.3320   -0.5509 H   0  0  0  0  0  0  0  0  0  0  0  0
  1 17  1  0  0  0  0
  1 32  1  0  0  0  0
  2 18  1  0  0  0  0
  2 33  1  0  0  0  0
  3 14  2  0  0  0  0
  4  8  1  0  0  0  0
  4  9  1  0  0  0  0
  4 14  1  0  0  0  0
  5 16  1  0  0  0  0
  5 19  1  0  0  0  0
  5 24  1  0  0  0  0
  6 20  1  0  0  0  0
  6 29  2  0  0  0  0
  7  8  1  0  0  0  0
  7 10  1  0  0  0  0
  7 35  1  0  0  0  0
  7 36  1  0  0  0  0
  8 37  1  0  0  0  0
  8 38  1  0  0  0  0
  9 11  1  0  0  0  0
  9 39  1  0  0  0  0
  9 40  1  0  0  0  0
 10 11  1  0  0  0  0
 10 12  2  0  0  0  0
 11 13  2  0  0  0  0
 12 17  1  0  0  0  0
 12 41  1  0  0  0  0
 13 18  1  0  0  0  0
 13 42  1  0  0  0  0
 14 21  1  0  0  0  0
 15 16  2  0  0  0  0
 15 20  1  0  0  0  0
 15 22  1  0  0  0  0
 16 23  1  0  0  0  0
 17 18  2  0  0  0  0
 19 20  2  0  0  0  0
 19 25  1  0  0  0  0
 21 22  2  0  0  0  0
 21 43  1  0  0  0  0
 22 44  1  0  0  0  0
 23 26  2  0  0  0  0
 23 27  1  0  0  0  0
 24 45  1  0  0  0  0
 24 46  1  0  0  0  0
 24 47  1  0  0  0  0
 25 28  2  0  0  0  0
 25 48  1  0  0  0  0
 26 30  1  0  0  0  0
 26 49  1  0  0  0  0
 27 31  2  0  0  0  0
 27 50  1  0  0  0  0
 28 29  1  0  0  0  0
 28 51  1  0  0  0  0
 29 52  1  0  0  0  0
 30 34  2  0  0  0  0
 30 53  1  0  0  0  0
 31 34  1  0  0  0  0
 31 54  1  0  0  0  0
 32 55  1  0  0  0  0
 32 56  1  0  0  0  0
 32 57  1  0  0  0  0
 33 58  1  0  0  0  0
 33 59  1  0  0  0  0
 33 60  1  0  0  0  0
 34 61  1  0  0  0  0
M  END
> <PUBCHEM_COMPOUND_CID>
10115043

> <PUBCHEM_CONFORMER_RMSD>
1

> <PUBCHEM_CONFORMER_DIVERSEORDER>
5
53
7
49
17
42
18
21
56
9
4
29
34
60
50
62
28
48
30
61
46
33
39
11
58
45
25
36
44
16
55
23
20
35
8
37
32
27
10
26
40
15
54
47
43
52
24
2
38
1
12
13
31
41
51
19
14
6
57
22
3
59

> <PUBCHEM_MMFF94_PARTIAL_CHARGES>
46
1 -0.36
10 -0.14
11 -0.14
12 -0.15
13 -0.15
14 0.62
15 -0.05
16 -0.2
17 0.08
18 0.08
19 -0.15
2 -0.36
20 0.26
21 -0.14
22 -0.1
23 0.05
24 0.26
25 -0.15
26 -0.15
27 -0.15
28 -0.15
29 0.16
3 -0.57
30 -0.15
31 -0.15
32 0.28
33 0.28
34 -0.15
4 -0.66
41 0.15
42 0.15
43 0.15
44 0.15
48 0.15
49 0.15
5 0.05
50 0.15
51 0.15
52 0.15
53 0.15
54 0.15
6 -0.57
61 0.15
7 0.14
8 0.3
9 0.44

> <PUBCHEM_EFFECTIVE_ROTOR_COUNT>
6.8

> <PUBCHEM_PHARMACOPHORE_FEATURES>
10
1 1 acceptor
1 2 acceptor
1 3 acceptor
1 5 cation
1 6 acceptor
5 5 15 16 19 20 rings
6 10 11 12 13 17 18 rings
6 23 26 27 30 31 34 rings
6 4 7 8 9 10 11 rings
6 6 19 20 25 28 29 rings

> <PUBCHEM_HEAVY_ATOM_COUNT>
34

> <PUBCHEM_ATOM_DEF_STEREO_COUNT>
0

> <PUBCHEM_ATOM_UDEF_STEREO_COUNT>
0

> <PUBCHEM_BOND_DEF_STEREO_COUNT>
1

> <PUBCHEM_BOND_UDEF_STEREO_COUNT>
0

> <PUBCHEM_ISOTOPIC_ATOM_COUNT>
0

> <PUBCHEM_COMPONENT_COUNT>
1

> <PUBCHEM_CACTVS_TAUTO_COUNT>
1

> <PUBCHEM_CONFORMER_ID>
009A57E300000005

> <PUBCHEM_MMFF94_ENERGY>
116.273

> <PUBCHEM_FEATURE_SELFOVERLAP>
50.889

> <PUBCHEM_SHAPE_FINGERPRINT>
10165383 225 18270122293834741449
10411042 1 17977383060862837531
10835480 77 18341325635381955008
10940486 97 18333736831659297189
11007060 377 18408325488637174107
12758862 11 18342453781371506105
13690498 29 18270675493463184231
13811026 1 18273214206309274824
14118638 360 18113612366221847875
14294032 229 17967810514645660628
14512766 119 18409727352756582452
14790565 3 17907016175941321537
150020 25 18272939332607640534
15021287 119 17095249111527881661
15064986 266 18342179981955092019
15183329 4 18334571309133597040
15230672 131 18264205799373151938
15361156 5 18263086676834596211
15400415 2 18410009897269443674
15419008 91 18201704160288143424
15439362 3 17979355257998935429
15890870 6 18195526992352657129
16992828 155 17459460066592292653
23081809 10 17458338633492790480
23522609 53 17749403524867390396
23559900 14 18270109262180499283
24771293 8 18040998492937675932
32027 91 17984430637685075726
3418910 222 17825117157627837708
4073 2 18408887369170553938
4107672 100 18335145271467600454
4144715 1 18411140281269953456
42767 28 18342460318470323962
44249763 50 18042105627219727300
4435113 14 18060146396790892492
44880568 143 18410300229170416596
4625314 4 18411423891747009566
5265222 85 18412824702934539003
6328613 192 18341048519317235968
6698420 124 18129670677906387145
70634741 139 18343584066028904009
9831232 110 18272095947192119326

> <PUBCHEM_SHAPE_MULTIPOLES>
667.15
23.53
5.02
1.14
39.65
0.3
0.48
-7.11
6.15
-11.82
0.15
0.95
-0.44
2.34

> <PUBCHEM_SHAPE_SELFOVERLAP>
1473.113

> <PUBCHEM_SHAPE_VOLUME>
360.7

> <PUBCHEM_COORDINATE_TYPE>
2
5
10

$$$$
