10141618
  -OEChem-02172602523D

 75 77  0     1  0  0  0  0  0999 V2000
   -1.2719   -1.7967   -1.0881 O   0  0  0  0  0  0  0  0  0  0  0  0
    1.4722   -0.5126    2.1448 O   0  0  0  0  0  0  0  0  0  0  0  0
    3.9590    4.8489   -0.2988 O   0  0  0  0  0  0  0  0  0  0  0  0
    4.7150    0.2433   -0.0392 O   0  0  0  0  0  0  0  0  0  0  0  0
   -2.6473   -0.6008    0.3523 N   0  0  0  0  0  0  0  0  0  0  0  0
    0.8498   -0.7369   -0.0829 N   0  0  0  0  0  0  0  0  0  0  0  0
    3.9783   -1.3859    1.4522 N   0  0  0  0  0  0  0  0  0  0  0  0
    0.5246   -4.5774    0.1022 N   0  0  0  0  0  0  0  0  0  0  0  0
    0.9431   -4.8244   -2.0648 N   0  0  0  0  0  0  0  0  0  0  0  0
   -5.3436    0.4155    0.6858 C   0  0  0  0  0  0  0  0  0  0  0  0
   -6.5423    1.2201    0.1890 C   0  0  0  0  0  0  0  0  0  0  0  0
   -5.0259   -0.7413   -0.2737 C   0  0  0  0  0  0  0  0  0  0  0  0
   -4.1117    1.3178    0.8551 C   0  0  0  0  0  0  0  0  0  0  0  0
   -3.7837   -1.5065    0.1765 C   0  0  0  0  0  0  0  0  0  0  0  0
   -2.8864    0.5106    1.2807 C   0  0  0  0  0  0  0  0  0  0  0  0
   -7.7691    0.3010    0.0609 C   0  0  0  0  0  0  0  0  0  0  0  0
   -6.8593    2.3499    1.1837 C   0  0  0  0  0  0  0  0  0  0  0  0
   -6.2243    1.8325   -1.1859 C   0  0  0  0  0  0  0  0  0  0  0  0
   -1.4476   -0.8543   -0.3115 C   0  0  0  0  0  0  0  0  0  0  0  0
   -0.3128    0.1024   -0.0456 C   0  0  2  0  0  0  0  0  0  0  0  0
   -0.2956    1.2032   -1.0978 C   0  0  0  0  0  0  0  0  0  0  0  0
    0.8384    2.1757   -0.8847 C   0  0  0  0  0  0  0  0  0  0  0  0
    1.6599   -0.9822    1.0244 C   0  0  0  0  0  0  0  0  0  0  0  0
    2.8560   -1.8655    0.6852 C   0  0  2  0  0  0  0  0  0  0  0  0
    2.0762    1.9453   -1.4853 C   0  0  0  0  0  0  0  0  0  0  0  0
    0.6495    3.3044   -0.0872 C   0  0  0  0  0  0  0  0  0  0  0  0
    2.5376   -3.3346    0.9885 C   0  0  0  0  0  0  0  0  0  0  0  0
    3.1248    2.8437   -1.2887 C   0  0  0  0  0  0  0  0  0  0  0  0
    1.6981    4.2028    0.1095 C   0  0  0  0  0  0  0  0  0  0  0  0
    1.7388   -3.9891   -0.1139 C   0  0  0  0  0  0  0  0  0  0  0  0
    2.9358    3.9725   -0.4913 C   0  0  0  0  0  0  0  0  0  0  0  0
    4.8149   -0.3679    1.0215 C   0  0  0  0  0  0  0  0  0  0  0  0
    1.9759   -4.1545   -1.4583 C   0  0  0  0  0  0  0  0  0  0  0  0
    5.8901   -0.0470    2.0248 C   0  0  0  0  0  0  0  0  0  0  0  0
    0.0860   -5.0648   -1.0975 C   0  0  0  0  0  0  0  0  0  0  0  0
    5.1975    4.5528   -0.9423 C   0  0  0  0  0  0  0  0  0  0  0  0
   -5.5810   -0.0176    1.6683 H   0  0  0  0  0  0  0  0  0  0  0  0
   -5.8515   -1.4574   -0.3280 H   0  0  0  0  0  0  0  0  0  0  0  0
   -4.8262   -0.3861   -1.2887 H   0  0  0  0  0  0  0  0  0  0  0  0
   -3.8466    1.8251   -0.0771 H   0  0  0  0  0  0  0  0  0  0  0  0
   -4.2796    2.0863    1.6159 H   0  0  0  0  0  0  0  0  0  0  0  0
   -3.5482   -2.2914   -0.5493 H   0  0  0  0  0  0  0  0  0  0  0  0
   -3.9630   -1.9972    1.1406 H   0  0  0  0  0  0  0  0  0  0  0  0
   -2.0525    1.2049    1.3577 H   0  0  0  0  0  0  0  0  0  0  0  0
   -3.0401    0.0747    2.2750 H   0  0  0  0  0  0  0  0  0  0  0  0
   -7.6790   -0.4102   -0.7662 H   0  0  0  0  0  0  0  0  0  0  0  0
   -7.9435   -0.2625    0.9843 H   0  0  0  0  0  0  0  0  0  0  0  0
   -8.6741    0.8877   -0.1382 H   0  0  0  0  0  0  0  0  0  0  0  0
   -6.1025    3.1408    1.1793 H   0  0  0  0  0  0  0  0  0  0  0  0
   -6.9532    1.9666    2.2059 H   0  0  0  0  0  0  0  0  0  0  0  0
   -7.8093    2.8352    0.9294 H   0  0  0  0  0  0  0  0  0  0  0  0
   -7.0933    2.4083   -1.5326 H   0  0  0  0  0  0  0  0  0  0  0  0
   -5.3955    2.5444   -1.1711 H   0  0  0  0  0  0  0  0  0  0  0  0
   -6.0406    1.0912   -1.9674 H   0  0  0  0  0  0  0  0  0  0  0  0
   -0.3495    0.5218    0.9584 H   0  0  0  0  0  0  0  0  0  0  0  0
   -0.2164    0.7745   -2.1065 H   0  0  0  0  0  0  0  0  0  0  0  0
   -1.2476    1.7501   -1.0938 H   0  0  0  0  0  0  0  0  0  0  0  0
    1.0716   -1.1949   -0.9626 H   0  0  0  0  0  0  0  0  0  0  0  0
    3.1123   -1.7334   -0.3733 H   0  0  0  0  0  0  0  0  0  0  0  0
    2.2357    1.0701   -2.1098 H   0  0  0  0  0  0  0  0  0  0  0  0
   -0.3096    3.4927    0.3879 H   0  0  0  0  0  0  0  0  0  0  0  0
    3.4716   -3.9022    1.0947 H   0  0  0  0  0  0  0  0  0  0  0  0
    2.0064   -3.4260    1.9446 H   0  0  0  0  0  0  0  0  0  0  0  0
    4.1144   -1.7685    2.3839 H   0  0  0  0  0  0  0  0  0  0  0  0
    4.0588    2.6051   -1.7859 H   0  0  0  0  0  0  0  0  0  0  0  0
    1.5453    5.0799    0.7325 H   0  0  0  0  0  0  0  0  0  0  0  0
    0.0363   -4.6407    0.9857 H   0  0  0  0  0  0  0  0  0  0  0  0
    2.8369   -3.8265   -2.0224 H   0  0  0  0  0  0  0  0  0  0  0  0
    5.4533    0.5071    2.8601 H   0  0  0  0  0  0  0  0  0  0  0  0
    6.6637    0.5641    1.5515 H   0  0  0  0  0  0  0  0  0  0  0  0
    6.3507   -0.9662    2.3979 H   0  0  0  0  0  0  0  0  0  0  0  0
   -0.8592   -5.5790   -1.1973 H   0  0  0  0  0  0  0  0  0  0  0  0
    5.6291    3.6165   -0.5725 H   0  0  0  0  0  0  0  0  0  0  0  0
    5.0963    4.5609   -2.0329 H   0  0  0  0  0  0  0  0  0  0  0  0
    5.8975    5.3529   -0.6803 H   0  0  0  0  0  0  0  0  0  0  0  0
  1 19  2  0  0  0  0
  2 23  2  0  0  0  0
  3 31  1  0  0  0  0
  3 36  1  0  0  0  0
  4 32  2  0  0  0  0
  5 14  1  0  0  0  0
  5 15  1  0  0  0  0
  5 19  1  0  0  0  0
  6 20  1  0  0  0  0
  6 23  1  0  0  0  0
  6 58  1  0  0  0  0
  7 24  1  0  0  0  0
  7 32  1  0  0  0  0
  7 64  1  0  0  0  0
  8 30  1  0  0  0  0
  8 35  1  0  0  0  0
  8 67  1  0  0  0  0
  9 33  1  0  0  0  0
  9 35  2  0  0  0  0
 10 11  1  0  0  0  0
 10 12  1  0  0  0  0
 10 13  1  0  0  0  0
 10 37  1  0  0  0  0
 11 16  1  0  0  0  0
 11 17  1  0  0  0  0
 11 18  1  0  0  0  0
 12 14  1  0  0  0  0
 12 38  1  0  0  0  0
 12 39  1  0  0  0  0
 13 15  1  0  0  0  0
 13 40  1  0  0  0  0
 13 41  1  0  0  0  0
 14 42  1  0  0  0  0
 14 43  1  0  0  0  0
 15 44  1  0  0  0  0
 15 45  1  0  0  0  0
 16 46  1  0  0  0  0
 16 47  1  0  0  0  0
 16 48  1  0  0  0  0
 17 49  1  0  0  0  0
 17 50  1  0  0  0  0
 17 51  1  0  0  0  0
 18 52  1  0  0  0  0
 18 53  1  0  0  0  0
 18 54  1  0  0  0  0
 19 20  1  0  0  0  0
 20 21  1  0  0  0  0
 20 55  1  0  0  0  0
 21 22  1  0  0  0  0
 21 56  1  0  0  0  0
 21 57  1  0  0  0  0
 22 25  2  0  0  0  0
 22 26  1  0  0  0  0
 23 24  1  0  0  0  0
 24 27  1  0  0  0  0
 24 59  1  0  0  0  0
 25 28  1  0  0  0  0
 25 60  1  0  0  0  0
 26 29  2  0  0  0  0
 26 61  1  0  0  0  0
 27 30  1  0  0  0  0
 27 62  1  0  0  0  0
 27 63  1  0  0  0  0
 28 31  2  0  0  0  0
 28 65  1  0  0  0  0
 29 31  1  0  0  0  0
 29 66  1  0  0  0  0
 30 33  2  0  0  0  0
 32 34  1  0  0  0  0
 33 68  1  0  0  0  0
 34 69  1  0  0  0  0
 34 70  1  0  0  0  0
 34 71  1  0  0  0  0
 35 72  1  0  0  0  0
 36 73  1  0  0  0  0
 36 74  1  0  0  0  0
 36 75  1  0  0  0  0
M  END
> <PUBCHEM_COMPOUND_CID>
10141618

> <PUBCHEM_CONFORMER_RMSD>
1.2

> <PUBCHEM_CONFORMER_DIVERSEORDER>
1
118
91
4
31
89
156
171
38
114
175
72
95
70
138
51
28
150
168
124
93
32
117
25
142
107
45
153
71
39
134
162
43
160
14
111
104
88
120
151
76
52
110
105
47
20
123
146
122
102
167
90
10
86
173
169
116
65
80
176
136
55
15
48
50
99
61
161
144
53
155
17
62
49
119
177
101
141
112
92
128
147
74
27
130
109
34
103
152
18
64
96
35
60
100
129
149
12
6
57
42
106
127
41
75
69
157
46
44
21
126
2
82
148
174
135
58
81
73
154
165
121
7
98
166
77
125
11
143
33
54
13
164
24
84
170
56
8
79
40
137
22
5
131
37
67
158
132
97
87
163
108
16
66
59
159
19
172
63
29
133
85
145
9
78
115
139
68
26
83
36
94
3
30
113
140
23

> <PUBCHEM_MMFF94_PARTIAL_CHARGES>
38
1 -0.57
14 0.3
15 0.3
19 0.57
2 -0.57
20 0.36
21 0.14
22 -0.14
23 0.57
24 0.36
25 -0.15
26 -0.15
27 0.18
28 -0.15
29 -0.15
3 -0.36
30 -0.33
31 0.08
32 0.57
33 0.08
34 0.06
35 0.04
36 0.28
4 -0.57
5 -0.66
58 0.37
6 -0.73
60 0.15
61 0.15
64 0.37
65 0.15
66 0.15
67 0.27
68 0.15
7 -0.73
72 0.15
8 0.03
9 -0.57

> <PUBCHEM_EFFECTIVE_ROTOR_COUNT>
14.2

> <PUBCHEM_PHARMACOPHORE_FEATURES>
12
1 1 acceptor
1 2 acceptor
1 3 acceptor
1 4 acceptor
1 6 donor
1 7 donor
1 8 donor
3 8 9 35 cation
4 11 16 17 18 hydrophobe
5 8 9 30 33 35 rings
6 22 25 26 28 29 31 rings
6 5 10 12 13 14 15 rings

> <PUBCHEM_HEAVY_ATOM_COUNT>
36

> <PUBCHEM_ATOM_DEF_STEREO_COUNT>
2

> <PUBCHEM_ATOM_UDEF_STEREO_COUNT>
0

> <PUBCHEM_BOND_DEF_STEREO_COUNT>
0

> <PUBCHEM_BOND_UDEF_STEREO_COUNT>
0

> <PUBCHEM_ISOTOPIC_ATOM_COUNT>
0

> <PUBCHEM_COMPONENT_COUNT>
1

> <PUBCHEM_CACTVS_TAUTO_COUNT>
8

> <PUBCHEM_CONFORMER_ID>
009ABFB200000001

> <PUBCHEM_MMFF94_ENERGY>
96.0082

> <PUBCHEM_FEATURE_SELFOVERLAP>
60.896

> <PUBCHEM_SHAPE_FINGERPRINT>
1100329 8 18192423289821961146
11505856 67 17108496289781410069
12166972 35 18270400465595972881
140371 6 18338803291056032673
14117953 113 18411136901452295534
14790565 3 18338518671804519516
14955137 171 18408888404199253378
15081414 286 18265894653612038503
15082195 135 18339631313902063895
15420108 30 18193271021396824204
15439362 3 18340214110799113900
15484559 13 18408896130951342974
15664445 248 18269006314452643206
15684973 49 17772739713920982790
15927050 60 18049445039692583476
18365409 1 17987501779413585591
1979834 28 18340762633577508170
20642791 178 18339076102688152803
20642791 268 18270403789209712641
20739085 24 18339640023652829714
21033648 144 18115018727851724653
23559900 14 18339648833036792691
25019877 29 17845638310432980078
3411729 13 18187366587820866552
38695281 34 18265619955666342644
394071 54 18339365141614085299
4112364 45 18410578418112082409
4144715 1 18190474766555531641
5104073 3 18187655751569493137
7399639 24 18052521194028112834
9896288 288 17905057189475045483
9981440 41 18120383300754649345

> <PUBCHEM_SHAPE_MULTIPOLES>
692.48
14.52
7.39
1.57
26.19
2.6
0.12
-10.64
3.97
-11.04
-3.67
-1.2
0.59
-1.87

> <PUBCHEM_SHAPE_SELFOVERLAP>
1440.786

> <PUBCHEM_SHAPE_VOLUME>
392.8

> <PUBCHEM_COORDINATE_TYPE>
2
5
10

$$$$
