527270
  -OEChem-02172602543D

 40 39  0     1  0  0  0  0  0999 V2000
    1.7894   -0.0243    0.2152 O   0  0  0  0  0  0  0  0  0  0  0  0
    3.1759   -1.6265   -0.6959 O   0  0  0  0  0  0  0  0  0  0  0  0
   -0.6234   -0.1334    0.4164 C   0  0  1  0  0  0  0  0  0  0  0  0
   -1.8306   -1.0913    0.2921 C   0  0  0  0  0  0  0  0  0  0  0  0
    0.6572   -0.8416   -0.0563 C   0  0  0  0  0  0  0  0  0  0  0  0
   -0.8455    1.1919   -0.3105 C   0  0  0  0  0  0  0  0  0  0  0  0
   -3.1010   -0.4982    0.8414 C   0  0  0  0  0  0  0  0  0  0  0  0
    4.1090    0.4342    0.2046 C   0  0  0  0  0  0  0  0  0  0  0  0
   -1.0680    1.1743   -1.7980 C   0  0  0  0  0  0  0  0  0  0  0  0
   -4.2890   -0.3484    0.2254 C   0  0  0  0  0  0  0  0  0  0  0  0
    3.0023   -0.5403   -0.1587 C   0  0  0  0  0  0  0  0  0  0  0  0
   -0.8417    2.3549    0.3627 C   0  0  0  0  0  0  0  0  0  0  0  0
    4.5980    0.1528    1.6204 C   0  0  0  0  0  0  0  0  0  0  0  0
    5.2572    0.3474   -0.7976 C   0  0  0  0  0  0  0  0  0  0  0  0
   -5.5211    0.2553    0.8370 C   0  0  0  0  0  0  0  0  0  0  0  0
   -4.4688   -0.8068   -1.1982 C   0  0  0  0  0  0  0  0  0  0  0  0
   -0.4824    0.0856    1.4856 H   0  0  0  0  0  0  0  0  0  0  0  0
   -1.9194   -1.4209   -0.7452 H   0  0  0  0  0  0  0  0  0  0  0  0
   -1.6209   -1.9981    0.8747 H   0  0  0  0  0  0  0  0  0  0  0  0
    0.6107   -1.0682   -1.1282 H   0  0  0  0  0  0  0  0  0  0  0  0
    0.7717   -1.7870    0.4887 H   0  0  0  0  0  0  0  0  0  0  0  0
   -3.0329   -0.1635    1.8762 H   0  0  0  0  0  0  0  0  0  0  0  0
    3.7005    1.4512    0.1525 H   0  0  0  0  0  0  0  0  0  0  0  0
   -1.2590    2.1776   -2.1948 H   0  0  0  0  0  0  0  0  0  0  0  0
   -1.9286    0.5550   -2.0617 H   0  0  0  0  0  0  0  0  0  0  0  0
   -0.1866    0.7842   -2.3155 H   0  0  0  0  0  0  0  0  0  0  0  0
   -0.6824    2.3882    1.4353 H   0  0  0  0  0  0  0  0  0  0  0  0
   -0.9976    3.3022   -0.1428 H   0  0  0  0  0  0  0  0  0  0  0  0
    5.3790    0.8620    1.9130 H   0  0  0  0  0  0  0  0  0  0  0  0
    5.0055   -0.8607    1.7064 H   0  0  0  0  0  0  0  0  0  0  0  0
    3.7763    0.2375    2.3399 H   0  0  0  0  0  0  0  0  0  0  0  0
    6.0259    1.0945   -0.5744 H   0  0  0  0  0  0  0  0  0  0  0  0
    4.8967    0.5248   -1.8167 H   0  0  0  0  0  0  0  0  0  0  0  0
    5.7297   -0.6411   -0.7821 H   0  0  0  0  0  0  0  0  0  0  0  0
   -6.3328   -0.4785    0.8696 H   0  0  0  0  0  0  0  0  0  0  0  0
   -5.8519    1.1203    0.2532 H   0  0  0  0  0  0  0  0  0  0  0  0
   -5.3356    0.5946    1.8614 H   0  0  0  0  0  0  0  0  0  0  0  0
   -4.4276    0.0516   -1.8763 H   0  0  0  0  0  0  0  0  0  0  0  0
   -3.7485   -1.5539   -1.5340 H   0  0  0  0  0  0  0  0  0  0  0  0
   -5.4525   -1.2769   -1.3149 H   0  0  0  0  0  0  0  0  0  0  0  0
  1  5  1  0  0  0  0
  1 11  1  0  0  0  0
  2 11  2  0  0  0  0
  3  4  1  0  0  0  0
  3  5  1  0  0  0  0
  3  6  1  0  0  0  0
  3 17  1  0  0  0  0
  4  7  1  0  0  0  0
  4 18  1  0  0  0  0
  4 19  1  0  0  0  0
  5 20  1  0  0  0  0
  5 21  1  0  0  0  0
  6  9  1  0  0  0  0
  6 12  2  0  0  0  0
  7 10  2  0  0  0  0
  7 22  1  0  0  0  0
  8 11  1  0  0  0  0
  8 13  1  0  0  0  0
  8 14  1  0  0  0  0
  8 23  1  0  0  0  0
  9 24  1  0  0  0  0
  9 25  1  0  0  0  0
  9 26  1  0  0  0  0
 10 15  1  0  0  0  0
 10 16  1  0  0  0  0
 12 27  1  0  0  0  0
 12 28  1  0  0  0  0
 13 29  1  0  0  0  0
 13 30  1  0  0  0  0
 13 31  1  0  0  0  0
 14 32  1  0  0  0  0
 14 33  1  0  0  0  0
 14 34  1  0  0  0  0
 15 35  1  0  0  0  0
 15 36  1  0  0  0  0
 15 37  1  0  0  0  0
 16 38  1  0  0  0  0
 16 39  1  0  0  0  0
 16 40  1  0  0  0  0
M  END
> <PUBCHEM_COMPOUND_CID>
527270

> <PUBCHEM_CONFORMER_RMSD>
1

> <PUBCHEM_CONFORMER_DIVERSEORDER>
1
2
78
22
41
26
11
20
29
56
64
45
49
23
85
21
70
67
8
63
24
66
18
33
27
79
72
74
62
36
43
84
61
65
76
46
15
55
30
68
75
54
60
59
47
81
39
71
7
80
83
52
35
88
9
69
17
38
57
77
87
16
6
3
42
48
12
50
44
82
25
14
5
19
34
58
10
4
28
40
51
32
53
86
13
31
73
37

> <PUBCHEM_MMFF94_PARTIAL_CHARGES>
17
1 -0.43
10 -0.28
11 0.66
12 -0.3
15 0.14
16 0.14
2 -0.57
22 0.15
27 0.15
28 0.15
3 0.14
4 0.14
5 0.28
6 -0.28
7 -0.29
8 0.06
9 0.14

> <PUBCHEM_EFFECTIVE_ROTOR_COUNT>
7

> <PUBCHEM_PHARMACOPHORE_FEATURES>
4
1 2 acceptor
3 10 15 16 hydrophobe
3 8 13 14 hydrophobe
4 3 4 6 7 hydrophobe

> <PUBCHEM_HEAVY_ATOM_COUNT>
16

> <PUBCHEM_ATOM_DEF_STEREO_COUNT>
0

> <PUBCHEM_ATOM_UDEF_STEREO_COUNT>
1

> <PUBCHEM_BOND_DEF_STEREO_COUNT>
0

> <PUBCHEM_BOND_UDEF_STEREO_COUNT>
0

> <PUBCHEM_ISOTOPIC_ATOM_COUNT>
0

> <PUBCHEM_COMPONENT_COUNT>
1

> <PUBCHEM_CACTVS_TAUTO_COUNT>
1

> <PUBCHEM_CONFORMER_ID>
00080BA600000001

> <PUBCHEM_MMFF94_ENERGY>
20.3621

> <PUBCHEM_FEATURE_SELFOVERLAP>
20.298

> <PUBCHEM_SHAPE_FINGERPRINT>
10366900 7 18412548730111179994
10922049 32 10159701287462486381
11132069 177 18410293626972031419
11401426 45 18411417319750811667
11833330 49 17022895736030012229
12236239 1 15213013847408575723
12592029 89 7925643197376629224
12815109 37 18260268563817485329
12932764 1 17203317880824087004
15048467 5 17775851211567796089
15342168 16 17273685662850430376
15375358 24 18335142007113503514
17834072 14 17676487245927062093
17834072 33 16702018711859689226
187816 3 16660365891653435497
200 152 18333448737736718388
22485316 2 17917711296905462359
23402539 116 18410006645931623815
23557571 272 18339089194207426540
23559900 14 18186810184093715682
300161 21 17775563130952768611
312423 11 18189057491244801114
5374978 207 18186517709457359720
621550 34 18059855039410788326
68521 5 18335141964543716525
7495541 125 16154007845175045523

> <PUBCHEM_SHAPE_MULTIPOLES>
317.53
11.57
1.5
1.27
2.33
0.69
-0.14
-1.51
1.24
-0.27
-0.13
0.05
0.16
0.05

> <PUBCHEM_SHAPE_SELFOVERLAP>
602.001

> <PUBCHEM_SHAPE_VOLUME>
197.6

> <PUBCHEM_COORDINATE_TYPE>
2
5
10

$$$$
