5316336
  -OEChem-02172602473D

 49 51  0     1  0  0  0  0  0999 V2000
    0.3687    0.1780    0.8132 O   0  0  0  0  0  0  0  0  0  0  0  0
   -0.5041   -0.1135   -1.3595 O   0  0  0  0  0  0  0  0  0  0  0  0
    2.3513   -0.8135    0.0854 O   0  0  0  0  0  0  0  0  0  0  0  0
   -4.7187   -0.3447    1.7688 O   0  0  0  0  0  0  0  0  0  0  0  0
    1.7624    2.5779    1.3531 O   0  0  0  0  0  0  0  0  0  0  0  0
    3.9348    2.3594   -0.3527 O   0  0  0  0  0  0  0  0  0  0  0  0
    5.8333    0.3576   -0.0107 O   0  0  0  0  0  0  0  0  0  0  0  0
   -1.4136   -3.9397    0.7569 O   0  0  0  0  0  0  0  0  0  0  0  0
    3.4101   -2.7740   -1.5231 O   0  0  0  0  0  0  0  0  0  0  0  0
   -3.6146    2.9028    0.3127 O   0  0  0  0  0  0  0  0  0  0  0  0
   -3.3718    2.8793   -1.9612 O   0  0  0  0  0  0  0  0  0  0  0  0
   -1.7618   -0.9181    0.6321 C   0  0  2  0  0  0  0  0  0  0  0  0
   -2.6946    0.3231    0.5728 C   0  0  2  0  0  0  0  0  0  0  0  0
   -0.4051   -0.6691   -0.0424 C   0  0  2  0  0  0  0  0  0  0  0  0
   -4.1186   -0.2691    0.4838 C   0  0  1  0  0  0  0  0  0  0  0  0
   -2.6070   -2.0092    0.0249 C   0  0  0  0  0  0  0  0  0  0  0  0
    1.6634    0.4249    0.2639 C   0  0  2  0  0  0  0  0  0  0  0  0
   -3.8956   -1.6521   -0.0304 C   0  0  0  0  0  0  0  0  0  0  0  0
   -2.3734    1.1976   -0.6085 C   0  0  0  0  0  0  0  0  0  0  0  0
    2.4245    1.3219    1.2450 C   0  0  1  0  0  0  0  0  0  0  0  0
    3.8773    1.5287    0.8098 C   0  0  1  0  0  0  0  0  0  0  0  0
    4.5292    0.1727    0.5248 C   0  0  1  0  0  0  0  0  0  0  0  0
    3.6737   -0.6607   -0.4393 C   0  0  1  0  0  0  0  0  0  0  0  0
   -2.0519   -3.3346   -0.3577 C   0  0  0  0  0  0  0  0  0  0  0  0
   -1.3855    0.9284   -1.4682 C   0  0  0  0  0  0  0  0  0  0  0  0
    4.2508   -2.0598   -0.6352 C   0  0  0  0  0  0  0  0  0  0  0  0
   -3.1630    2.4060   -0.8583 C   0  0  0  0  0  0  0  0  0  0  0  0
   -1.5895   -1.1777    1.6866 H   0  0  0  0  0  0  0  0  0  0  0  0
   -2.5600    0.9055    1.4939 H   0  0  0  0  0  0  0  0  0  0  0  0
    0.1171   -1.6278   -0.1356 H   0  0  0  0  0  0  0  0  0  0  0  0
   -4.7868    0.2931   -0.1751 H   0  0  0  0  0  0  0  0  0  0  0  0
    1.5511    0.9374   -0.6989 H   0  0  0  0  0  0  0  0  0  0  0  0
   -4.6941   -2.2908   -0.3814 H   0  0  0  0  0  0  0  0  0  0  0  0
    2.4082    0.8550    2.2381 H   0  0  0  0  0  0  0  0  0  0  0  0
    4.4376    2.0676    1.5816 H   0  0  0  0  0  0  0  0  0  0  0  0
    4.6250   -0.3580    1.4812 H   0  0  0  0  0  0  0  0  0  0  0  0
    3.6044   -0.1844   -1.4256 H   0  0  0  0  0  0  0  0  0  0  0  0
   -2.8422   -4.0096   -0.7034 H   0  0  0  0  0  0  0  0  0  0  0  0
   -1.3241   -3.2271   -1.1681 H   0  0  0  0  0  0  0  0  0  0  0  0
   -1.1693    1.4985   -2.3617 H   0  0  0  0  0  0  0  0  0  0  0  0
    4.2715   -2.6124    0.3094 H   0  0  0  0  0  0  0  0  0  0  0  0
    5.2598   -2.0416   -1.0566 H   0  0  0  0  0  0  0  0  0  0  0  0
   -4.1097   -0.8110    2.3668 H   0  0  0  0  0  0  0  0  0  0  0  0
    2.2698    3.1231    1.9782 H   0  0  0  0  0  0  0  0  0  0  0  0
    3.4356    1.9371   -1.0697 H   0  0  0  0  0  0  0  0  0  0  0  0
    6.3076   -0.4877    0.0597 H   0  0  0  0  0  0  0  0  0  0  0  0
   -1.0587   -4.7931    0.4546 H   0  0  0  0  0  0  0  0  0  0  0  0
    3.4123   -2.3048   -2.3747 H   0  0  0  0  0  0  0  0  0  0  0  0
   -4.1504    3.7147    0.1866 H   0  0  0  0  0  0  0  0  0  0  0  0
  1 14  1  0  0  0  0
  1 17  1  0  0  0  0
  2 14  1  0  0  0  0
  2 25  1  0  0  0  0
  3 17  1  0  0  0  0
  3 23  1  0  0  0  0
  4 15  1  0  0  0  0
  4 43  1  0  0  0  0
  5 20  1  0  0  0  0
  5 44  1  0  0  0  0
  6 21  1  0  0  0  0
  6 45  1  0  0  0  0
  7 22  1  0  0  0  0
  7 46  1  0  0  0  0
  8 24  1  0  0  0  0
  8 47  1  0  0  0  0
  9 26  1  0  0  0  0
  9 48  1  0  0  0  0
 10 27  1  0  0  0  0
 10 49  1  0  0  0  0
 11 27  2  0  0  0  0
 12 13  1  0  0  0  0
 12 14  1  0  0  0  0
 12 16  1  0  0  0  0
 12 28  1  0  0  0  0
 13 15  1  0  0  0  0
 13 19  1  0  0  0  0
 13 29  1  0  0  0  0
 14 30  1  0  0  0  0
 15 18  1  0  0  0  0
 15 31  1  0  0  0  0
 16 18  2  0  0  0  0
 16 24  1  0  0  0  0
 17 20  1  0  0  0  0
 17 32  1  0  0  0  0
 18 33  1  0  0  0  0
 19 25  2  0  0  0  0
 19 27  1  0  0  0  0
 20 21  1  0  0  0  0
 20 34  1  0  0  0  0
 21 22  1  0  0  0  0
 21 35  1  0  0  0  0
 22 23  1  0  0  0  0
 22 36  1  0  0  0  0
 23 26  1  0  0  0  0
 23 37  1  0  0  0  0
 24 38  1  0  0  0  0
 24 39  1  0  0  0  0
 25 40  1  0  0  0  0
 26 41  1  0  0  0  0
 26 42  1  0  0  0  0
M  END
> <PUBCHEM_COMPOUND_CID>
5316336

> <PUBCHEM_CONFORMER_RMSD>
0.8

> <PUBCHEM_CONFORMER_DIVERSEORDER>
1
142
151
62
52
67
100
132
108
104
107
21
22
48
76
68
117
75
71
152
147
123
86
57
122
12
150
14
81
138
130
93
56
94
20
115
97
59
118
106
31
35
10
30
84
148
153
63
24
113
6
141
90
109
74
65
54
114
120
99
155
72
129
131
15
124
78
85
42
11
87
70
92
4
28
111
37
140
3
50
55
80
7
137
13
45
102
73
51
40
126
121
60
29
110
77
98
96
91
101
17
69
82
95
64
44
41
26
136
16
146
103
133
33
9
39
149
89
128
145
5
61
134
53
36
32
157
47
116
27
144
58
125
83
88
143
79
23
156
34
49
135
43
8
105
154
19
38
66
112
139
46
127
119
25
18
2

> <PUBCHEM_MMFF94_PARTIAL_CHARGES>
36
1 -0.56
10 -0.65
11 -0.57
12 0.14
13 0.14
14 0.56
15 0.42
16 -0.28
17 0.56
18 -0.29
19 -0.12
2 -0.36
20 0.28
21 0.28
22 0.28
23 0.28
24 0.42
25 -0.07
26 0.28
27 0.71
3 -0.56
33 0.15
4 -0.68
40 0.15
43 0.4
44 0.4
45 0.4
46 0.4
47 0.4
48 0.4
49 0.5
5 -0.68
6 -0.68
7 -0.68
8 -0.68
9 -0.68

> <PUBCHEM_EFFECTIVE_ROTOR_COUNT>
6.8

> <PUBCHEM_PHARMACOPHORE_FEATURES>
21
1 1 acceptor
1 10 acceptor
1 11 acceptor
1 2 acceptor
1 3 acceptor
1 4 acceptor
1 4 donor
1 5 acceptor
1 5 donor
1 6 acceptor
1 6 donor
1 7 acceptor
1 7 donor
1 8 acceptor
1 8 donor
1 9 acceptor
1 9 donor
3 10 11 27 anion
5 12 13 15 16 18 rings
6 2 12 13 14 19 25 rings
6 3 17 20 21 22 23 rings

> <PUBCHEM_HEAVY_ATOM_COUNT>
27

> <PUBCHEM_ATOM_DEF_STEREO_COUNT>
7

> <PUBCHEM_ATOM_UDEF_STEREO_COUNT>
2

> <PUBCHEM_BOND_DEF_STEREO_COUNT>
0

> <PUBCHEM_BOND_UDEF_STEREO_COUNT>
0

> <PUBCHEM_ISOTOPIC_ATOM_COUNT>
0

> <PUBCHEM_COMPONENT_COUNT>
1

> <PUBCHEM_CACTVS_TAUTO_COUNT>
1

> <PUBCHEM_CONFORMER_ID>
00511EF000000001

> <PUBCHEM_MMFF94_ENERGY>
71.2889

> <PUBCHEM_FEATURE_SELFOVERLAP>
106.978

> <PUBCHEM_SHAPE_FINGERPRINT>
10165383 225 17974578992061899597
10366900 7 18199462353876223112
1100329 8 16250537960306033016
11370993 144 18272381853704225387
11405975 8 18336542703728645216
11552529 35 17701820118670448063
12173636 292 18336255774122317799
12236239 1 14923940163545749722
12623949 98 18057624233234606031
12633257 1 18271533086345918451
12788726 201 18193248975540891775
13140716 1 17973732660155420363
13224815 77 17603857936107914728
13583140 156 18131061666961762724
14223421 5 18197773508390086826
14251757 17 18341332184890076898
14866123 147 16904135024361493570
15042514 8 18189903196186346979
15230672 131 18044656404756416274
15849732 13 18263644121489211631
17349148 13 15647043906795305690
1813 80 17386006238409222751
20645477 56 18410293609881547171
20645477 70 17561370556743880502
20693207 138 18271259273918164830
21033648 29 18339067225249786577
23557571 272 18334575750441225196
23559900 14 18271805778267482890
3298306 158 18122059806373041311
350125 39 18410015403733709937
4214541 1 18410572881598258680
460360 51 18116134606840379122
46194498 28 18335147531084907588
469060 322 16835968008698552588
508706 21 18409162216722511478
5104073 3 18261668182459848152
5281201 14 18409732842056654212
6287921 2 18190183575619323612
7399639 24 17838602715308579160
9709674 26 18341334487008995074
9981440 41 16981190284735480288

> <PUBCHEM_SHAPE_MULTIPOLES>
491.08
10.3
3.69
1.32
8
1.3
0.19
-0.98
-0.55
-1.95
0.61
-0.5
-0.42
2.22

> <PUBCHEM_SHAPE_SELFOVERLAP>
1043.333

> <PUBCHEM_SHAPE_VOLUME>
268.8

> <PUBCHEM_COORDINATE_TYPE>
2
5
10

$$$$
