5318999
  -OEChem-02172602283D

 35 36  0     0  0  0  0  0  0999 V2000
   -3.1033   -2.0092   -0.0211 O   0  0  0  0  0  0  0  0  0  0  0  0
   -5.4483   -0.6440   -0.4611 O   0  0  0  0  0  0  0  0  0  0  0  0
   -5.4911    2.1197   -0.3042 O   0  0  0  0  0  0  0  0  0  0  0  0
    1.6837   -2.0734    1.0809 O   0  0  0  0  0  0  0  0  0  0  0  0
    6.7305    1.2769   -0.7613 O   0  0  0  0  0  0  0  0  0  0  0  0
   -1.9643    0.0651    0.3593 C   0  0  0  0  0  0  0  0  0  0  0  0
   -3.1157   -0.6466    0.0601 C   0  0  0  0  0  0  0  0  0  0  0  0
   -4.3077    0.0422   -0.1647 C   0  0  0  0  0  0  0  0  0  0  0  0
   -1.9761    1.4498    0.4392 C   0  0  0  0  0  0  0  0  0  0  0  0
   -0.6918   -0.6371    0.6027 C   0  0  0  0  0  0  0  0  0  0  0  0
   -4.3337    1.4347   -0.0874 C   0  0  0  0  0  0  0  0  0  0  0  0
   -3.1680    2.1384    0.2145 C   0  0  0  0  0  0  0  0  0  0  0  0
    3.0513   -0.3619    0.2412 C   0  0  0  0  0  0  0  0  0  0  0  0
    0.5194   -0.1353    0.3204 C   0  0  0  0  0  0  0  0  0  0  0  0
    1.7619   -0.9362    0.5919 C   0  0  0  0  0  0  0  0  0  0  0  0
    3.2298    1.0211    0.2699 C   0  0  0  0  0  0  0  0  0  0  0  0
    4.1093   -1.1944   -0.1238 C   0  0  0  0  0  0  0  0  0  0  0  0
    4.4664    1.5717   -0.0667 C   0  0  0  0  0  0  0  0  0  0  0  0
    5.3460   -0.6438   -0.4604 C   0  0  0  0  0  0  0  0  0  0  0  0
    5.5245    0.7394   -0.4318 C   0  0  0  0  0  0  0  0  0  0  0  0
   -2.8228   -2.5771   -1.2976 C   0  0  0  0  0  0  0  0  0  0  0  0
   -1.0938    2.0308    0.6926 H   0  0  0  0  0  0  0  0  0  0  0  0
   -0.7816   -1.6230    1.0519 H   0  0  0  0  0  0  0  0  0  0  0  0
   -3.1832    3.2230    0.2808 H   0  0  0  0  0  0  0  0  0  0  0  0
    0.6243    0.8241   -0.1717 H   0  0  0  0  0  0  0  0  0  0  0  0
    2.4451    1.7034    0.5825 H   0  0  0  0  0  0  0  0  0  0  0  0
    3.9886   -2.2741   -0.1564 H   0  0  0  0  0  0  0  0  0  0  0  0
    4.5953    2.6503   -0.0333 H   0  0  0  0  0  0  0  0  0  0  0  0
    6.1661   -1.2972   -0.7453 H   0  0  0  0  0  0  0  0  0  0  0  0
   -1.8186   -2.3009   -1.6339 H   0  0  0  0  0  0  0  0  0  0  0  0
   -3.5640   -2.2576   -2.0370 H   0  0  0  0  0  0  0  0  0  0  0  0
   -2.8710   -3.6656   -1.2052 H   0  0  0  0  0  0  0  0  0  0  0  0
   -5.2571   -1.5967   -0.4215 H   0  0  0  0  0  0  0  0  0  0  0  0
   -6.1949    1.4767   -0.4995 H   0  0  0  0  0  0  0  0  0  0  0  0
    6.6747    2.2451   -0.6879 H   0  0  0  0  0  0  0  0  0  0  0  0
  1  7  1  0  0  0  0
  1 21  1  0  0  0  0
  2  8  1  0  0  0  0
  2 33  1  0  0  0  0
  3 11  1  0  0  0  0
  3 34  1  0  0  0  0
  4 15  2  0  0  0  0
  5 20  1  0  0  0  0
  5 35  1  0  0  0  0
  6  7  2  0  0  0  0
  6  9  1  0  0  0  0
  6 10  1  0  0  0  0
  7  8  1  0  0  0  0
  8 11  2  0  0  0  0
  9 12  2  0  0  0  0
  9 22  1  0  0  0  0
 10 14  2  0  0  0  0
 10 23  1  0  0  0  0
 11 12  1  0  0  0  0
 12 24  1  0  0  0  0
 13 15  1  0  0  0  0
 13 16  2  0  0  0  0
 13 17  1  0  0  0  0
 14 15  1  0  0  0  0
 14 25  1  0  0  0  0
 16 18  1  0  0  0  0
 16 26  1  0  0  0  0
 17 19  2  0  0  0  0
 17 27  1  0  0  0  0
 18 20  2  0  0  0  0
 18 28  1  0  0  0  0
 19 20  1  0  0  0  0
 19 29  1  0  0  0  0
 21 30  1  0  0  0  0
 21 31  1  0  0  0  0
 21 32  1  0  0  0  0
M  END
> <PUBCHEM_COMPOUND_CID>
5318999

> <PUBCHEM_CONFORMER_RMSD>
0.6

> <PUBCHEM_CONFORMER_DIVERSEORDER>
1
9
18
37
30
22
11
23
3
32
16
36
19
34
24
2
21
7
33
13
17
29
15
6
14
20
35
12
31
8
26
4
5
25
38
10
27
28

> <PUBCHEM_MMFF94_PARTIAL_CHARGES>
32
1 -0.36
10 -0.18
11 0.08
12 -0.15
13 0.09
14 -0.14
15 0.47
16 -0.15
17 -0.15
18 -0.15
19 -0.15
2 -0.53
20 0.08
21 0.28
22 0.15
23 0.15
24 0.15
25 0.15
26 0.15
27 0.15
28 0.15
29 0.15
3 -0.53
33 0.45
34 0.45
35 0.45
4 -0.57
5 -0.53
6 0.03
7 0.08
8 0.08
9 -0.15

> <PUBCHEM_EFFECTIVE_ROTOR_COUNT>
4

> <PUBCHEM_PHARMACOPHORE_FEATURES>
7
1 1 acceptor
1 2 donor
1 3 donor
1 4 acceptor
1 5 donor
6 13 16 17 18 19 20 rings
6 6 7 8 9 11 12 rings

> <PUBCHEM_HEAVY_ATOM_COUNT>
21

> <PUBCHEM_ATOM_DEF_STEREO_COUNT>
0

> <PUBCHEM_ATOM_UDEF_STEREO_COUNT>
0

> <PUBCHEM_BOND_DEF_STEREO_COUNT>
1

> <PUBCHEM_BOND_UDEF_STEREO_COUNT>
0

> <PUBCHEM_ISOTOPIC_ATOM_COUNT>
0

> <PUBCHEM_COMPONENT_COUNT>
1

> <PUBCHEM_CACTVS_TAUTO_COUNT>
61

> <PUBCHEM_CONFORMER_ID>
0051295700000001

> <PUBCHEM_MMFF94_ENERGY>
74.2606

> <PUBCHEM_FEATURE_SELFOVERLAP>
35.525

> <PUBCHEM_SHAPE_FINGERPRINT>
10014705 185 18261110751423298385
10595046 47 18409728478232724786
10730089 173 18412265038367069064
12107183 9 17688869731288907858
12236239 1 18260829280409154674
12596602 18 9583514309222476118
12788726 201 17631451155649672489
13167823 11 18411135831667997258
14528608 73 18408322185680748204
15183329 4 18339651049439857846
15196674 1 18409449172098447704
15250474 111 18339908373183538638
17834072 33 18412825789645180126
17959699 21 18408323276518155992
19427546 20 18335979853055545367
20511986 3 18187915175545665596
20871999 31 18343293795412773223
21267235 1 18411423951354454979
21709351 56 18335419101740205868
21781055 127 17272855303632231371
22061861 79 16845297112021703292
221357 26 18272369776277619176
22393880 68 18343016718439999016
23402539 116 18408884070782869662
23402655 69 18410856555882983474
23557571 272 18273502290085554621
23559900 14 18202275927028467608
245318 6 16808720938759658820
3004659 81 18339082584733006858
3472631 163 18409731725159429229
34797466 226 17774730848027077412
34934 24 18260827064543503793
351380 3 11959730452234076916
3545911 37 18411140238008771080
4073 2 18041005081095319314
4214541 1 18412826871597280000
465052 167 9151176450868000152
474 4 17748831842860054664
5104073 3 18260548900722828608
542803 24 17822011995183053992
59755656 520 17240765086070781762
633830 44 18040435503696078066
67856867 119 18262507109858292786

> <PUBCHEM_SHAPE_MULTIPOLES>
402.82
14.71
2.32
0.84
9.44
0.31
0.03
-4.93
3.86
-1.95
0.3
0.08
0.27
-0.85

> <PUBCHEM_SHAPE_SELFOVERLAP>
869.44

> <PUBCHEM_SHAPE_VOLUME>
221.5

> <PUBCHEM_COORDINATE_TYPE>
2
5
10

$$$$
