44258443
  -OEChem-02172602313D

 83 87  0     1  0  0  0  0  0999 V2000
    3.1072   -0.8797    0.4282 O   0  0  0  0  0  0  0  0  0  0  0  0
   -0.1226    1.7327    3.2519 O   0  0  0  0  0  0  0  0  0  0  0  0
    1.6515    0.4581    2.3378 O   0  0  0  0  0  0  0  0  0  0  0  0
   -1.1507    3.4138    0.1521 O   0  0  0  0  0  0  0  0  0  0  0  0
    4.8598   -2.0842    3.4099 O   0  0  0  0  0  0  0  0  0  0  0  0
    6.4448   -3.1336    1.2323 O   0  0  0  0  0  0  0  0  0  0  0  0
    1.3574    2.2370    0.0759 O   0  0  0  0  0  0  0  0  0  0  0  0
    1.7747    3.9706    3.2623 O   0  0  0  0  0  0  0  0  0  0  0  0
    3.0387   -1.6346   -1.7785 O   0  0  0  0  0  0  0  0  0  0  0  0
    4.7279   -3.7916   -1.0698 O   0  0  0  0  0  0  0  0  0  0  0  0
   -1.0209    5.7062    0.4063 O   0  0  0  0  0  0  0  0  0  0  0  0
    2.7717    0.2173   -3.8175 O   0  0  0  0  0  0  0  0  0  0  0  0
   -1.6165   -1.4083   -0.8825 O   0  0  0  0  0  0  0  0  0  0  0  0
    0.3273    1.2746   -4.4135 O   0  0  0  0  0  0  0  0  0  0  0  0
   -2.2196    1.3236   -3.8442 O   0  0  0  0  0  0  0  0  0  0  0  0
   -6.9368   -2.9426    2.1605 O   0  0  0  0  0  0  0  0  0  0  0  0
    3.2885   -1.1995    1.8088 C   0  0  1  0  0  0  0  0  0  0  0  0
    4.7183   -1.6904    2.0476 C   0  0  2  0  0  0  0  0  0  0  0  0
    5.0423   -2.8785    1.1416 C   0  0  1  0  0  0  0  0  0  0  0  0
    1.0784    3.2123    1.0796 C   0  0  2  0  0  0  0  0  0  0  0  0
    1.8549    2.8729    2.3552 C   0  0  2  0  0  0  0  0  0  0  0  0
   -0.4272    3.2279    1.3629 C   0  0  2  0  0  0  0  0  0  0  0  0
    1.2919    1.6314    3.0601 C   0  0  1  0  0  0  0  0  0  0  0  0
    4.6715   -2.5834   -0.3118 C   0  0  2  0  0  0  0  0  0  0  0  0
   -0.8646    1.9271    2.0441 C   0  0  2  0  0  0  0  0  0  0  0  0
    2.9808    0.0577    2.6162 C   0  0  0  0  0  0  0  0  0  0  0  0
    3.2564   -2.0156   -0.4203 C   0  0  1  0  0  0  0  0  0  0  0  0
   -2.3434    1.9572    2.4194 C   0  0  0  0  0  0  0  0  0  0  0  0
    1.8131   -1.1050   -2.0770 C   0  0  0  0  0  0  0  0  0  0  0  0
   -1.3791    4.7120   -0.2103 C   0  0  0  0  0  0  0  0  0  0  0  0
    1.6754   -0.1708   -3.1046 C   0  0  0  0  0  0  0  0  0  0  0  0
    0.6973   -1.5078   -1.3426 C   0  0  0  0  0  0  0  0  0  0  0  0
   -2.1468    4.7537   -1.4968 C   0  0  0  0  0  0  0  0  0  0  0  0
   -0.5572   -0.9739   -1.6382 C   0  0  0  0  0  0  0  0  0  0  0  0
    0.4217    0.3647   -3.4027 C   0  0  0  0  0  0  0  0  0  0  0  0
   -0.6928   -0.0411   -2.6651 C   0  0  0  0  0  0  0  0  0  0  0  0
   -2.0273    0.5046   -2.9562 C   0  0  0  0  0  0  0  0  0  0  0  0
   -2.8744   -0.8891   -1.1484 C   0  0  0  0  0  0  0  0  0  0  0  0
   -3.1335    0.0077   -2.1132 C   0  0  0  0  0  0  0  0  0  0  0  0
    3.4963    1.3426   -3.3268 C   0  0  0  0  0  0  0  0  0  0  0  0
   -3.9415   -1.4279   -0.2812 C   0  0  0  0  0  0  0  0  0  0  0  0
   -4.6926   -0.5660    0.5179 C   0  0  0  0  0  0  0  0  0  0  0  0
   -4.1972   -2.7990   -0.2602 C   0  0  0  0  0  0  0  0  0  0  0  0
   -5.6993   -1.0749    1.3381 C   0  0  0  0  0  0  0  0  0  0  0  0
   -5.2040   -3.3081    0.5602 C   0  0  0  0  0  0  0  0  0  0  0  0
   -5.9550   -2.4461    1.3592 C   0  0  0  0  0  0  0  0  0  0  0  0
   -7.1450   -4.3539    2.1333 C   0  0  0  0  0  0  0  0  0  0  0  0
    2.5552   -1.9688    2.0872 H   0  0  0  0  0  0  0  0  0  0  0  0
    5.4363   -0.8816    1.8646 H   0  0  0  0  0  0  0  0  0  0  0  0
    4.5434   -3.7879    1.4967 H   0  0  0  0  0  0  0  0  0  0  0  0
    1.3848    4.1856    0.6798 H   0  0  0  0  0  0  0  0  0  0  0  0
    2.9114    2.7420    2.1071 H   0  0  0  0  0  0  0  0  0  0  0  0
   -0.6370    4.0464    2.0662 H   0  0  0  0  0  0  0  0  0  0  0  0
    1.7015    1.5726    4.0763 H   0  0  0  0  0  0  0  0  0  0  0  0
    5.3963   -1.8940   -0.7610 H   0  0  0  0  0  0  0  0  0  0  0  0
   -0.7125    1.0682    1.3779 H   0  0  0  0  0  0  0  0  0  0  0  0
    3.6855    0.8443    2.3311 H   0  0  0  0  0  0  0  0  0  0  0  0
    3.0889   -0.1464    3.6876 H   0  0  0  0  0  0  0  0  0  0  0  0
    2.5660   -2.8177   -0.1323 H   0  0  0  0  0  0  0  0  0  0  0  0
   -2.6296    1.0209    2.9109 H   0  0  0  0  0  0  0  0  0  0  0  0
   -2.5494    2.7620    3.1338 H   0  0  0  0  0  0  0  0  0  0  0  0
   -2.9797    2.0977    1.5416 H   0  0  0  0  0  0  0  0  0  0  0  0
    4.2170   -2.7923    3.5862 H   0  0  0  0  0  0  0  0  0  0  0  0
    6.9168   -2.3483    0.9064 H   0  0  0  0  0  0  0  0  0  0  0  0
    2.3161    2.2482   -0.0866 H   0  0  0  0  0  0  0  0  0  0  0  0
    2.1431    4.7504    2.8132 H   0  0  0  0  0  0  0  0  0  0  0  0
    4.0990   -4.4228   -0.6804 H   0  0  0  0  0  0  0  0  0  0  0  0
    0.7374   -2.2474   -0.5515 H   0  0  0  0  0  0  0  0  0  0  0  0
   -1.5686    4.2698   -2.2882 H   0  0  0  0  0  0  0  0  0  0  0  0
   -2.3241    5.7949   -1.7807 H   0  0  0  0  0  0  0  0  0  0  0  0
   -3.1120    4.2576   -1.3679 H   0  0  0  0  0  0  0  0  0  0  0  0
   -4.1285    0.3910   -2.3101 H   0  0  0  0  0  0  0  0  0  0  0  0
   -0.5855    1.5845   -4.5129 H   0  0  0  0  0  0  0  0  0  0  0  0
    4.3358    1.5306   -4.0016 H   0  0  0  0  0  0  0  0  0  0  0  0
    3.8907    1.1399   -2.3259 H   0  0  0  0  0  0  0  0  0  0  0  0
    2.8592    2.2324   -3.3045 H   0  0  0  0  0  0  0  0  0  0  0  0
   -4.5104    0.5054    0.5136 H   0  0  0  0  0  0  0  0  0  0  0  0
   -3.6216   -3.4834   -0.8788 H   0  0  0  0  0  0  0  0  0  0  0  0
   -6.2811   -0.3985    1.9583 H   0  0  0  0  0  0  0  0  0  0  0  0
   -5.3497   -4.3824    0.5278 H   0  0  0  0  0  0  0  0  0  0  0  0
   -7.4677   -4.6941    1.1434 H   0  0  0  0  0  0  0  0  0  0  0  0
   -6.2646   -4.8976    2.4924 H   0  0  0  0  0  0  0  0  0  0  0  0
   -7.9618   -4.5736    2.8286 H   0  0  0  0  0  0  0  0  0  0  0  0
  1 17  1  0  0  0  0
  1 27  1  0  0  0  0
  2 23  1  0  0  0  0
  2 25  1  0  0  0  0
  3 23  1  0  0  0  0
  3 26  1  0  0  0  0
  4 22  1  0  0  0  0
  4 30  1  0  0  0  0
  5 18  1  0  0  0  0
  5 63  1  0  0  0  0
  6 19  1  0  0  0  0
  6 64  1  0  0  0  0
  7 20  1  0  0  0  0
  7 65  1  0  0  0  0
  8 21  1  0  0  0  0
  8 66  1  0  0  0  0
  9 27  1  0  0  0  0
  9 29  1  0  0  0  0
 10 24  1  0  0  0  0
 10 67  1  0  0  0  0
 11 30  2  0  0  0  0
 12 31  1  0  0  0  0
 12 40  1  0  0  0  0
 13 34  1  0  0  0  0
 13 38  1  0  0  0  0
 14 35  1  0  0  0  0
 14 73  1  0  0  0  0
 15 37  2  0  0  0  0
 16 46  1  0  0  0  0
 16 47  1  0  0  0  0
 17 18  1  0  0  0  0
 17 26  1  0  0  0  0
 17 48  1  0  0  0  0
 18 19  1  0  0  0  0
 18 49  1  0  0  0  0
 19 24  1  0  0  0  0
 19 50  1  0  0  0  0
 20 21  1  0  0  0  0
 20 22  1  0  0  0  0
 20 51  1  0  0  0  0
 21 23  1  0  0  0  0
 21 52  1  0  0  0  0
 22 25  1  0  0  0  0
 22 53  1  0  0  0  0
 23 54  1  0  0  0  0
 24 27  1  0  0  0  0
 24 55  1  0  0  0  0
 25 28  1  0  0  0  0
 25 56  1  0  0  0  0
 26 57  1  0  0  0  0
 26 58  1  0  0  0  0
 27 59  1  0  0  0  0
 28 60  1  0  0  0  0
 28 61  1  0  0  0  0
 28 62  1  0  0  0  0
 29 31  2  0  0  0  0
 29 32  1  0  0  0  0
 30 33  1  0  0  0  0
 31 35  1  0  0  0  0
 32 34  2  0  0  0  0
 32 68  1  0  0  0  0
 33 69  1  0  0  0  0
 33 70  1  0  0  0  0
 33 71  1  0  0  0  0
 34 36  1  0  0  0  0
 35 36  2  0  0  0  0
 36 37  1  0  0  0  0
 37 39  1  0  0  0  0
 38 39  2  0  0  0  0
 38 41  1  0  0  0  0
 39 72  1  0  0  0  0
 40 74  1  0  0  0  0
 40 75  1  0  0  0  0
 40 76  1  0  0  0  0
 41 42  2  0  0  0  0
 41 43  1  0  0  0  0
 42 44  1  0  0  0  0
 42 77  1  0  0  0  0
 43 45  2  0  0  0  0
 43 78  1  0  0  0  0
 44 46  2  0  0  0  0
 44 79  1  0  0  0  0
 45 46  1  0  0  0  0
 45 80  1  0  0  0  0
 47 81  1  0  0  0  0
 47 82  1  0  0  0  0
 47 83  1  0  0  0  0
M  END
> <PUBCHEM_COMPOUND_CID>
44258443

> <PUBCHEM_CONFORMER_RMSD>
1.2

> <PUBCHEM_CONFORMER_DIVERSEORDER>
1
117
290
312
284
41
255
254
259
90
139
79
304
129
67
80
318
103
124
200
283
179
256
328
17
91
89
238
88
267
220
187
192
28
178
246
130
102
228
143
99
324
232
110
245
289
147
167
116
199
188
113
148
108
7
98
159
112
174
176
9
48
104
2
84
96
160
56
215
309
18
5
252
205
208
195
299
122
177
40
276
310
280
42
183
273
306
175
222
234
258
21
120
296
95
55
323
297
105
93
218
265
13
97
241
247
44
135
249
202
300
36
62
57
248
326
219
141
313
10
78
278
106
158
83
140
132
123
190
311
165
214
281
197
72
25
37
233
264
100
145
151
181
194
152
166
128
213
47
277
86
138
209
49
51
14
81
149
43
60
253
263
203
4
8
58
164
153
308
142
85
198
24
133
162
173
302
59
193
64
71
184
82
230
262
68
227
54
292
16
316
185
6
53
52
237
274
63
70
170
287
266
286
15
186
261
285
87
101
251
244
157
33
206
61
31
180
77
26
301
19
111
27
39
69
168
32
125
30
322
236
136
204
34
275
298
35
127
163
269
156
144
11
109
50
92
226
272
121
307
76
243
182
126
23
315
282
305
212
250
240
172
288
207
20
327
169
118
257
131
75
146
196
270
155
3
171
279
22
107
65
294
239
191
317
137
201
115
150
231
321
314
29
46
134
94
319
225
74
224
216
66
223
73
293
221
114
161
154
189
229
303
320
291
211
217
210
119
260
242
271
45
38
325
12
295
268
235

> <PUBCHEM_MMFF94_PARTIAL_CHARGES>
58
1 -0.56
10 -0.68
11 -0.57
12 -0.36
13 -0.16
14 -0.53
15 -0.57
16 -0.36
17 0.28
18 0.28
19 0.28
2 -0.56
20 0.28
21 0.28
22 0.28
23 0.56
24 0.28
25 0.28
26 0.28
27 0.56
29 0.08
3 -0.56
30 0.66
31 0.08
32 -0.15
33 0.06
34 0.08
35 0.08
36 0.09
37 0.47
38 0.05
39 -0.14
4 -0.43
40 0.28
41 0.03
42 -0.15
43 -0.15
44 -0.15
45 -0.15
46 0.08
47 0.28
5 -0.68
6 -0.68
63 0.4
64 0.4
65 0.4
66 0.4
67 0.4
68 0.15
7 -0.68
72 0.15
73 0.45
77 0.15
78 0.15
79 0.15
8 -0.68
80 0.15
9 -0.36

> <PUBCHEM_EFFECTIVE_ROTOR_COUNT>
12.4

> <PUBCHEM_PHARMACOPHORE_FEATURES>
25
1 1 acceptor
1 10 acceptor
1 10 donor
1 11 acceptor
1 12 acceptor
1 13 acceptor
1 14 donor
1 15 acceptor
1 16 acceptor
1 2 acceptor
1 3 acceptor
1 5 acceptor
1 5 donor
1 6 acceptor
1 6 donor
1 7 acceptor
1 7 donor
1 8 acceptor
1 8 donor
1 9 acceptor
6 1 17 18 19 24 27 rings
6 13 34 36 37 38 39 rings
6 2 20 21 22 23 25 rings
6 29 31 32 34 35 36 rings
6 41 42 43 44 45 46 rings

> <PUBCHEM_HEAVY_ATOM_COUNT>
47

> <PUBCHEM_ATOM_DEF_STEREO_COUNT>
6

> <PUBCHEM_ATOM_UDEF_STEREO_COUNT>
4

> <PUBCHEM_BOND_DEF_STEREO_COUNT>
0

> <PUBCHEM_BOND_UDEF_STEREO_COUNT>
0

> <PUBCHEM_ISOTOPIC_ATOM_COUNT>
0

> <PUBCHEM_COMPONENT_COUNT>
1

> <PUBCHEM_CACTVS_TAUTO_COUNT>
5

> <PUBCHEM_CONFORMER_ID>
02A3548B00000001

> <PUBCHEM_MMFF94_ENERGY>
165.0855

> <PUBCHEM_FEATURE_SELFOVERLAP>
127.039

> <PUBCHEM_SHAPE_FINGERPRINT>
10190108 129 18198903815413950104
11285246 1 14418427563208386286
11399939 17 17693650829007532151
12047536 79 18130234878132647707
12128747 34 17339565886857268758
12156800 1 18269001885887991964
12422481 6 17203605965159906859
12655387 17 18270137747137226147
12786520 15 17489580203686400637
13383661 66 14640549992535876857
13383668 262 17617109444105741723
13636023 20 16010452389879494283
13965767 371 16200142214604718742
14068700 675 17895196580108014443
14918310 93 17988652955608997328
15444296 8 18270666598311198301
16067689 68 17609764307127029354
19315092 285 18113627806170366966
20764821 26 16701722887946336692
21792965 20 18042673083331839919
21796203 349 17987500663312029864
24941158 1 17684392902604150299
4112364 45 12894811198819592979
6609424 69 17345775018071194121

> <PUBCHEM_SHAPE_MULTIPOLES>
873.33
12.15
6.32
5.02
12.32
6.17
2.55
-21.52
-8.54
1.54
-3.29
-2.89
2.01
2.13

> <PUBCHEM_SHAPE_SELFOVERLAP>
1881.305

> <PUBCHEM_SHAPE_VOLUME>
474.5

> <PUBCHEM_COORDINATE_TYPE>
2
5
10

$$$$
