11947793
  -OEChem-02172602233D

105114  0     1  0  0  0  0  0999 V2000
   -4.5397   -0.0005   -1.9637 O   0  0  0  0  0  0  0  0  0  0  0  0
   -5.1958    1.8231    0.4397 O   0  0  0  0  0  0  0  0  0  0  0  0
   -2.2950    1.4484   -2.8467 O   0  0  0  0  0  0  0  0  0  0  0  0
   -6.5114   -1.5256   -0.1121 O   0  0  0  0  0  0  0  0  0  0  0  0
   -8.2807   -0.1633    0.7404 O   0  0  0  0  0  0  0  0  0  0  0  0
    8.7433   -2.5178   -0.0043 O   0  0  0  0  0  0  0  0  0  0  0  0
    7.9198    1.1307    2.2721 O   0  0  0  0  0  0  0  0  0  0  0  0
    1.8659    2.2072    0.6168 N   0  0  0  0  0  0  0  0  0  0  0  0
   -3.5913    0.6058   -1.0415 C   0  0  2  0  0  0  0  0  0  0  0  0
   -2.1897    0.6209   -1.6707 C   0  0  2  0  0  0  0  0  0  0  0  0
   -1.1474    1.2305   -0.6328 C   0  0  1  0  0  0  0  0  0  0  0  0
    0.2967    1.2280   -1.2698 C   0  0  2  0  0  0  0  0  0  0  0  0
   -4.3691   -0.6551   -0.7133 C   0  0  1  0  0  0  0  0  0  0  0  0
   -4.0968    1.9423   -0.4924 C   0  0  2  0  0  0  0  0  0  0  0  0
    0.6347   -0.2613   -1.7312 C   0  0  1  0  0  0  0  0  0  0  0  0
   -1.6229    2.6743   -0.2995 C   0  0  0  0  0  0  0  0  0  0  0  0
   -1.7284   -0.7467   -2.2576 C   0  0  0  0  0  0  0  0  0  0  0  0
   -3.0291    2.7152    0.2959 C   0  0  0  0  0  0  0  0  0  0  0  0
   -5.5321   -0.5422    0.2143 C   0  0  1  0  0  0  0  0  0  0  0  0
   -0.2898   -0.7429   -2.8259 C   0  0  0  0  0  0  0  0  0  0  0  0
    1.5020    1.3900   -0.3931 C   0  0  0  0  0  0  0  0  0  0  0  0
   -1.1687    0.3975    0.6900 C   0  0  0  0  0  0  0  0  0  0  0  0
   -6.1693    0.8456    0.1055 C   0  0  1  0  0  0  0  0  0  0  0  0
    2.1903   -0.3269   -1.8688 C   0  0  0  0  0  0  0  0  0  0  0  0
    0.4959    2.2500   -2.4299 C   0  0  0  0  0  0  0  0  0  0  0  0
    2.5603    0.5814   -0.7390 C   0  0  0  0  0  0  0  0  0  0  0  0
   -7.4084    0.9445    1.0224 C   0  0  0  0  0  0  0  0  0  0  0  0
    3.6449    0.8869    0.1088 C   0  0  0  0  0  0  0  0  0  0  0  0
    3.1816    1.9155    0.9536 C   0  0  0  0  0  0  0  0  0  0  0  0
   -7.6299   -1.4370    0.7748 C   0  0  1  0  0  0  0  0  0  0  0  0
   -8.2043    2.2140    0.6825 C   0  0  0  0  0  0  0  0  0  0  0  0
   -7.0665    0.9923    2.5206 C   0  0  0  0  0  0  0  0  0  0  0  0
    4.9733    0.4080    0.2504 C   0  0  0  0  0  0  0  0  0  0  0  0
    3.9846    2.4982    1.9369 C   0  0  0  0  0  0  0  0  0  0  0  0
    5.5225   -0.6950   -0.6350 C   0  0  0  0  0  0  0  0  0  0  0  0
    5.7882    1.0243    1.2397 C   0  0  0  0  0  0  0  0  0  0  0  0
    6.6644   -1.4040    0.0730 C   0  0  2  0  0  0  0  0  0  0  0  0
   -8.6252   -2.4649    0.3538 C   0  0  0  0  0  0  0  0  0  0  0  0
    7.7506   -0.4107    0.4315 C   0  0  1  0  0  0  0  0  0  0  0  0
    5.2952    2.0400    2.0655 C   0  0  0  0  0  0  0  0  0  0  0  0
    7.4531   -2.4870   -0.6647 C   0  0  0  0  0  0  0  0  0  0  0  0
    7.2142    0.6043    1.4187 C   0  0  0  0  0  0  0  0  0  0  0  0
    8.8937   -1.3449    0.8413 C   0  0  0  0  0  0  0  0  0  0  0  0
   -9.4919   -3.1521    1.1213 C   0  0  0  0  0  0  0  0  0  0  0  0
    7.7046   -2.2017   -2.1482 C   0  0  0  0  0  0  0  0  0  0  0  0
    6.8074   -3.8632   -0.5087 C   0  0  0  0  0  0  0  0  0  0  0  0
   10.2629   -0.7318    0.5525 C   0  0  0  0  0  0  0  0  0  0  0  0
    8.8412   -1.8431    2.2905 C   0  0  0  0  0  0  0  0  0  0  0  0
  -10.4713   -4.1786    0.6267 C   0  0  0  0  0  0  0  0  0  0  0  0
   -9.5365   -2.9227    2.6094 C   0  0  0  0  0  0  0  0  0  0  0  0
   -3.8768   -1.6147   -0.6825 H   0  0  0  0  0  0  0  0  0  0  0  0
   -4.4398    2.5596   -1.3320 H   0  0  0  0  0  0  0  0  0  0  0  0
    0.4534   -0.9468   -0.8896 H   0  0  0  0  0  0  0  0  0  0  0  0
   -1.6303    3.2992   -1.1994 H   0  0  0  0  0  0  0  0  0  0  0  0
   -0.9303    3.1516    0.4029 H   0  0  0  0  0  0  0  0  0  0  0  0
   -2.4002   -1.0651   -3.0650 H   0  0  0  0  0  0  0  0  0  0  0  0
   -1.7861   -1.5217   -1.4842 H   0  0  0  0  0  0  0  0  0  0  0  0
   -2.9959    2.3518    1.3314 H   0  0  0  0  0  0  0  0  0  0  0  0
   -3.3506    3.7610    0.3924 H   0  0  0  0  0  0  0  0  0  0  0  0
   -5.1483   -0.7290    1.2247 H   0  0  0  0  0  0  0  0  0  0  0  0
   -0.0193   -1.7614   -3.1273 H   0  0  0  0  0  0  0  0  0  0  0  0
   -0.2232   -0.1188   -3.7219 H   0  0  0  0  0  0  0  0  0  0  0  0
   -2.1622    0.3516    1.1452 H   0  0  0  0  0  0  0  0  0  0  0  0
   -0.8748   -0.6444    0.5521 H   0  0  0  0  0  0  0  0  0  0  0  0
   -0.5053    0.8348    1.4432 H   0  0  0  0  0  0  0  0  0  0  0  0
   -6.5177    1.0134   -0.9240 H   0  0  0  0  0  0  0  0  0  0  0  0
    2.5348    0.0637   -2.8305 H   0  0  0  0  0  0  0  0  0  0  0  0
    2.5544   -1.3478   -1.7289 H   0  0  0  0  0  0  0  0  0  0  0  0
    1.5002    2.1875   -2.8672 H   0  0  0  0  0  0  0  0  0  0  0  0
   -0.1913    2.1162   -3.2636 H   0  0  0  0  0  0  0  0  0  0  0  0
    0.3975    3.2800   -2.0692 H   0  0  0  0  0  0  0  0  0  0  0  0
   -2.9943    1.0813   -3.4144 H   0  0  0  0  0  0  0  0  0  0  0  0
    1.2984    2.9216    1.0521 H   0  0  0  0  0  0  0  0  0  0  0  0
   -7.2721   -1.6546    1.7864 H   0  0  0  0  0  0  0  0  0  0  0  0
   -8.5277    2.2032   -0.3649 H   0  0  0  0  0  0  0  0  0  0  0  0
   -9.1192    2.2725    1.2836 H   0  0  0  0  0  0  0  0  0  0  0  0
   -7.6177    3.1223    0.8547 H   0  0  0  0  0  0  0  0  0  0  0  0
   -6.5095    1.8993    2.7786 H   0  0  0  0  0  0  0  0  0  0  0  0
   -7.9822    0.9683    3.1229 H   0  0  0  0  0  0  0  0  0  0  0  0
   -6.4700    0.1342    2.8421 H   0  0  0  0  0  0  0  0  0  0  0  0
    3.6083    3.2902    2.5763 H   0  0  0  0  0  0  0  0  0  0  0  0
    4.7384   -1.4234   -0.8633 H   0  0  0  0  0  0  0  0  0  0  0  0
    5.8482   -0.2402   -1.5774 H   0  0  0  0  0  0  0  0  0  0  0  0
    6.2589   -1.8358    1.0017 H   0  0  0  0  0  0  0  0  0  0  0  0
   -8.6634   -2.6577   -0.7184 H   0  0  0  0  0  0  0  0  0  0  0  0
    8.0463    0.1613   -0.4598 H   0  0  0  0  0  0  0  0  0  0  0  0
    5.9241    2.5016    2.8233 H   0  0  0  0  0  0  0  0  0  0  0  0
    8.2070   -1.2402   -2.2963 H   0  0  0  0  0  0  0  0  0  0  0  0
    6.7746   -2.2022   -2.7253 H   0  0  0  0  0  0  0  0  0  0  0  0
    8.3721   -2.9585   -2.5770 H   0  0  0  0  0  0  0  0  0  0  0  0
    5.8141   -3.8959   -0.9676 H   0  0  0  0  0  0  0  0  0  0  0  0
    6.7122   -4.1343    0.5489 H   0  0  0  0  0  0  0  0  0  0  0  0
    7.4294   -4.6404   -0.9672 H   0  0  0  0  0  0  0  0  0  0  0  0
   11.0643   -1.4484    0.7656 H   0  0  0  0  0  0  0  0  0  0  0  0
   10.3602   -0.4727   -0.5080 H   0  0  0  0  0  0  0  0  0  0  0  0
   10.4349    0.1699    1.1485 H   0  0  0  0  0  0  0  0  0  0  0  0
    7.8756   -2.3010    2.5282 H   0  0  0  0  0  0  0  0  0  0  0  0
    9.5920   -2.6259    2.4522 H   0  0  0  0  0  0  0  0  0  0  0  0
    9.0321   -1.0426    3.0106 H   0  0  0  0  0  0  0  0  0  0  0  0
  -10.3891   -4.3241   -0.4553 H   0  0  0  0  0  0  0  0  0  0  0  0
  -10.2882   -5.1441    1.1090 H   0  0  0  0  0  0  0  0  0  0  0  0
  -11.4973   -3.8657    0.8453 H   0  0  0  0  0  0  0  0  0  0  0  0
  -10.5759   -2.8076    2.9375 H   0  0  0  0  0  0  0  0  0  0  0  0
   -9.1082   -3.7830    3.1340 H   0  0  0  0  0  0  0  0  0  0  0  0
   -9.0129   -2.0234    2.9423 H   0  0  0  0  0  0  0  0  0  0  0  0
  1  9  1  0  0  0  0
  1 13  1  0  0  0  0
  2 14  1  0  0  0  0
  2 23  1  0  0  0  0
  3 10  1  0  0  0  0
  3 72  1  0  0  0  0
  4 19  1  0  0  0  0
  4 30  1  0  0  0  0
  5 27  1  0  0  0  0
  5 30  1  0  0  0  0
  6 41  1  0  0  0  0
  6 43  1  0  0  0  0
  7 42  2  0  0  0  0
  8 21  1  0  0  0  0
  8 29  1  0  0  0  0
  8 73  1  0  0  0  0
  9 10  1  0  0  0  0
  9 13  1  0  0  0  0
  9 14  1  0  0  0  0
 10 11  1  0  0  0  0
 10 17  1  0  0  0  0
 11 12  1  0  0  0  0
 11 16  1  0  0  0  0
 11 22  1  0  0  0  0
 12 15  1  0  0  0  0
 12 21  1  0  0  0  0
 12 25  1  0  0  0  0
 13 19  1  0  0  0  0
 13 51  1  0  0  0  0
 14 18  1  0  0  0  0
 14 52  1  0  0  0  0
 15 20  1  0  0  0  0
 15 24  1  0  0  0  0
 15 53  1  0  0  0  0
 16 18  1  0  0  0  0
 16 54  1  0  0  0  0
 16 55  1  0  0  0  0
 17 20  1  0  0  0  0
 17 56  1  0  0  0  0
 17 57  1  0  0  0  0
 18 58  1  0  0  0  0
 18 59  1  0  0  0  0
 19 23  1  0  0  0  0
 19 60  1  0  0  0  0
 20 61  1  0  0  0  0
 20 62  1  0  0  0  0
 21 26  2  0  0  0  0
 22 63  1  0  0  0  0
 22 64  1  0  0  0  0
 22 65  1  0  0  0  0
 23 27  1  0  0  0  0
 23 66  1  0  0  0  0
 24 26  1  0  0  0  0
 24 67  1  0  0  0  0
 24 68  1  0  0  0  0
 25 69  1  0  0  0  0
 25 70  1  0  0  0  0
 25 71  1  0  0  0  0
 26 28  1  0  0  0  0
 27 31  1  0  0  0  0
 27 32  1  0  0  0  0
 28 29  2  0  0  0  0
 28 33  1  0  0  0  0
 29 34  1  0  0  0  0
 30 38  1  0  0  0  0
 30 74  1  0  0  0  0
 31 75  1  0  0  0  0
 31 76  1  0  0  0  0
 31 77  1  0  0  0  0
 32 78  1  0  0  0  0
 32 79  1  0  0  0  0
 32 80  1  0  0  0  0
 33 35  1  0  0  0  0
 33 36  2  0  0  0  0
 34 40  2  0  0  0  0
 34 81  1  0  0  0  0
 35 37  1  0  0  0  0
 35 82  1  0  0  0  0
 35 83  1  0  0  0  0
 36 40  1  0  0  0  0
 36 42  1  0  0  0  0
 37 39  1  0  0  0  0
 37 41  1  0  0  0  0
 37 84  1  0  0  0  0
 38 44  2  0  0  0  0
 38 85  1  0  0  0  0
 39 42  1  0  0  0  0
 39 43  1  0  0  0  0
 39 86  1  0  0  0  0
 40 87  1  0  0  0  0
 41 45  1  0  0  0  0
 41 46  1  0  0  0  0
 43 47  1  0  0  0  0
 43 48  1  0  0  0  0
 44 49  1  0  0  0  0
 44 50  1  0  0  0  0
 45 88  1  0  0  0  0
 45 89  1  0  0  0  0
 45 90  1  0  0  0  0
 46 91  1  0  0  0  0
 46 92  1  0  0  0  0
 46 93  1  0  0  0  0
 47 94  1  0  0  0  0
 47 95  1  0  0  0  0
 47 96  1  0  0  0  0
 48 97  1  0  0  0  0
 48 98  1  0  0  0  0
 48 99  1  0  0  0  0
 49100  1  0  0  0  0
 49101  1  0  0  0  0
 49102  1  0  0  0  0
 50103  1  0  0  0  0
 50104  1  0  0  0  0
 50105  1  0  0  0  0
M  END
> <PUBCHEM_COMPOUND_CID>
11947793

> <PUBCHEM_CONFORMER_RMSD>
1

> <PUBCHEM_CONFORMER_DIVERSEORDER>
1

> <PUBCHEM_MMFF94_PARTIAL_CHARGES>
40
1 -0.3
10 0.38
12 0.18
13 -0.05
14 0.38
19 0.38
2 -0.56
21 -0.33
23 0.28
24 0.18
26 -0.18
27 0.28
29 -0.15
3 -0.68
30 0.7
33 -0.14
34 -0.15
35 0.14
36 0.09
38 -0.29
39 0.06
4 -0.56
40 -0.15
41 0.28
42 0.42
43 0.28
44 -0.28
49 0.14
5 -0.56
50 0.14
51 0.1
6 -0.56
7 -0.57
72 0.4
73 0.27
8 0.03
81 0.15
85 0.15
87 0.15
9 -0.04

> <PUBCHEM_EFFECTIVE_ROTOR_COUNT>
4

> <PUBCHEM_PHARMACOPHORE_FEATURES>
23
1 1 acceptor
1 2 acceptor
1 3 acceptor
1 3 donor
1 4 acceptor
1 5 acceptor
1 6 acceptor
1 7 acceptor
1 8 cation
1 8 donor
3 27 31 32 hydrophobe
3 41 45 46 hydrophobe
3 43 47 48 hydrophobe
3 44 49 50 hydrophobe
5 12 15 21 24 26 rings
5 6 37 39 41 43 rings
5 8 21 26 28 29 rings
6 10 11 12 15 17 20 rings
6 28 29 33 34 36 40 rings
6 33 35 36 37 39 42 rings
6 4 5 19 23 27 30 rings
6 9 10 11 14 16 18 rings
7 1 2 9 13 14 19 23 rings

> <PUBCHEM_HEAVY_ATOM_COUNT>
50

> <PUBCHEM_ATOM_DEF_STEREO_COUNT>
12

> <PUBCHEM_ATOM_UDEF_STEREO_COUNT>
0

> <PUBCHEM_BOND_DEF_STEREO_COUNT>
0

> <PUBCHEM_BOND_UDEF_STEREO_COUNT>
0

> <PUBCHEM_ISOTOPIC_ATOM_COUNT>
0

> <PUBCHEM_COMPONENT_COUNT>
1

> <PUBCHEM_CACTVS_TAUTO_COUNT>
16

> <PUBCHEM_CONFORMER_ID>
00B64F1100000001

> <PUBCHEM_MMFF94_ENERGY>
202.155

> <PUBCHEM_FEATURE_SELFOVERLAP>
117.321

> <PUBCHEM_SHAPE_FINGERPRINT>
10029044 110 11383839268460735875
10076449 9 16081089260017582252
10100884 174 18261394507344889027
10190108 129 18335420136795577902
10190206 1 11314299534759558631
10258705 36 18339929212407102406
10533779 1 14620248378123688979
10533779 47 17561094583135362574
11181472 205 12607405486590231406
11411753 29 17967244304359037412
11456790 92 17346878944503273352
11534866 41 18408040702584575946
11578821 258 11239703197789903978
11607047 74 17606690377183808276
12124843 1 12035443965658340177
12144603 126 14056999361317799197
13383668 362 18343025522690504639
13553643 46 13614233785808521954
13782708 43 18263353712784924484
13811026 1 18341891874720675213
13947947 74 11458429024354174228
14400156 162 18343587309187765105
15064986 96 17489591121735542630
15198563 99 13695854927436826671
15347590 135 17560532789477449971
15392192 104 18410013278168068572
15455200 26 15551948096220250603
1577012 14 16630234888239352372
15776043 110 17917706869337415050
16728433 281 8429502098457689639
16991971 28 16443067209395536125
16993089 31 18187079529375784014
16994733 274 11672064133873260589
19302320 297 17203328965544543120
20105231 36 18260264132366421010
20156587 128 13335001777772370110
2026 5 17822006506532043499
21647283 7 18060702797499877929
21867018 265 12540704734261050761
22149856 69 17703782619089456992
23576562 1 8645898067522733683
25269216 80 17749390301163960220
3178227 256 17989203729693468676
3383291 50 18259984881328519970
3918712 181 10087649173977096311
4093350 32 14045746993847884500
4516262 110 12319193767971554233
45377200 153 17167869655898818634
4760202 170 10809344451785766566
5028188 123 17676204658559382237
504579 68 13912330062410058552
5470011 282 12324238360487396265
57303763 39 18336551620598119062
5937810 71 8430324550202701359
6058803 2 16627117880196698124
6691757 9 15985096419499082429
9831232 110 18262798459349665878
9962374 69 17458347476339985414

> <PUBCHEM_SHAPE_MULTIPOLES>
982.91
36.3
3.71
2.45
11.31
2.63
-0.45
35.55
22.84
3.88
0.93
-0.36
-0.1
4.06

> <PUBCHEM_SHAPE_SELFOVERLAP>
2188.035

> <PUBCHEM_SHAPE_VOLUME>
524.6

> <PUBCHEM_COORDINATE_TYPE>
2
5
10

$$$$
