162888603
  -OEChem-02172602353D

 54 55  0     1  0  0  0  0  0999 V2000
   -2.7416   -0.9004   -0.0230 O   0  0  0  0  0  0  0  0  0  0  0  0
   -0.6169   -0.1105   -0.5841 O   0  0  0  0  0  0  0  0  0  0  0  0
    0.0449   -0.5175    1.6462 O   0  0  0  0  0  0  0  0  0  0  0  0
   -1.7589    2.4586   -1.0967 O   0  0  0  0  0  0  0  0  0  0  0  0
   -4.5748    2.3259   -1.8042 O   0  0  0  0  0  0  0  0  0  0  0  0
   -6.0472    0.7077    0.0778 O   0  0  0  0  0  0  0  0  0  0  0  0
   -4.0077   -2.7389    1.5662 O   0  0  0  0  0  0  0  0  0  0  0  0
    5.3417   -1.3877   -2.2029 O   0  0  0  0  0  0  0  0  0  0  0  0
    3.6362    0.1085   -2.7718 O   0  0  0  0  0  0  0  0  0  0  0  0
    3.1855    2.5154    0.5998 O   0  0  0  0  0  0  0  0  0  0  0  0
    3.7143    1.4830    2.6033 O   0  0  0  0  0  0  0  0  0  0  0  0
    1.3708   -1.4416   -0.2385 C   0  0  2  0  0  0  0  0  0  0  0  0
   -2.5395    1.2645   -1.1180 C   0  0  1  0  0  0  0  0  0  0  0  0
   -1.9229    0.2615   -0.1434 C   0  0  1  0  0  0  0  0  0  0  0  0
    2.3361   -0.2223   -0.1905 C   0  0  2  0  0  0  0  0  0  0  0  0
   -3.9792    1.5948   -0.7308 C   0  0  2  0  0  0  0  0  0  0  0  0
   -4.7905    0.3243   -0.4736 C   0  0  1  0  0  0  0  0  0  0  0  0
   -4.0445   -0.6072    0.4885 C   0  0  1  0  0  0  0  0  0  0  0  0
   -0.0128   -1.0457    0.3121 C   0  0  2  0  0  0  0  0  0  0  0  0
    3.7870   -0.6309   -0.4776 C   0  0  0  0  0  0  0  0  0  0  0  0
    2.1483    0.5312    1.0995 C   0  0  0  0  0  0  0  0  0  0  0  0
   -4.7645   -1.9389    0.6763 C   0  0  0  0  0  0  0  0  0  0  0  0
    1.8699   -2.6606    0.4883 C   0  0  0  0  0  0  0  0  0  0  0  0
    1.0906    0.3322    1.8968 C   0  0  0  0  0  0  0  0  0  0  0  0
    4.0015   -0.9893   -1.9431 C   0  0  0  0  0  0  0  0  0  0  0  0
    3.1074    1.5444    1.5452 C   0  0  0  0  0  0  0  0  0  0  0  0
    2.0772   -3.8465   -0.0941 C   0  0  0  0  0  0  0  0  0  0  0  0
    4.0896    3.5858    0.8923 C   0  0  0  0  0  0  0  0  0  0  0  0
    1.2339   -1.6971   -1.2991 H   0  0  0  0  0  0  0  0  0  0  0  0
   -2.4936    0.8755   -2.1421 H   0  0  0  0  0  0  0  0  0  0  0  0
   -1.8301    0.7425    0.8395 H   0  0  0  0  0  0  0  0  0  0  0  0
    2.0123    0.4792   -0.9727 H   0  0  0  0  0  0  0  0  0  0  0  0
   -4.0069    2.2591    0.1411 H   0  0  0  0  0  0  0  0  0  0  0  0
   -4.9901   -0.1851   -1.4241 H   0  0  0  0  0  0  0  0  0  0  0  0
   -3.9322   -0.1410    1.4769 H   0  0  0  0  0  0  0  0  0  0  0  0
   -0.6371   -1.9473    0.3502 H   0  0  0  0  0  0  0  0  0  0  0  0
    4.4577    0.2112   -0.2616 H   0  0  0  0  0  0  0  0  0  0  0  0
    4.1401   -1.4377    0.1745 H   0  0  0  0  0  0  0  0  0  0  0  0
   -4.8415   -2.4778   -0.2740 H   0  0  0  0  0  0  0  0  0  0  0  0
   -5.7658   -1.7963    1.0938 H   0  0  0  0  0  0  0  0  0  0  0  0
    2.0735   -2.5725    1.5527 H   0  0  0  0  0  0  0  0  0  0  0  0
    0.9391    0.8283    2.8467 H   0  0  0  0  0  0  0  0  0  0  0  0
    3.3593   -1.8372   -2.2044 H   0  0  0  0  0  0  0  0  0  0  0  0
   -1.7793    2.8166   -0.1928 H   0  0  0  0  0  0  0  0  0  0  0  0
   -4.5775    1.7565   -2.5925 H   0  0  0  0  0  0  0  0  0  0  0  0
   -5.8823    1.1234    0.9414 H   0  0  0  0  0  0  0  0  0  0  0  0
    2.4387   -4.6878    0.4870 H   0  0  0  0  0  0  0  0  0  0  0  0
    1.8930   -4.0004   -1.1515 H   0  0  0  0  0  0  0  0  0  0  0  0
   -4.4816   -3.5818    1.6683 H   0  0  0  0  0  0  0  0  0  0  0  0
    5.3220   -1.9782   -2.9750 H   0  0  0  0  0  0  0  0  0  0  0  0
    3.3487   -0.2589   -3.6248 H   0  0  0  0  0  0  0  0  0  0  0  0
    5.1102    3.2031    0.9878 H   0  0  0  0  0  0  0  0  0  0  0  0
    3.7826    4.1015    1.8073 H   0  0  0  0  0  0  0  0  0  0  0  0
    4.0568    4.2952    0.0612 H   0  0  0  0  0  0  0  0  0  0  0  0
  1 14  1  0  0  0  0
  1 18  1  0  0  0  0
  2 14  1  0  0  0  0
  2 19  1  0  0  0  0
  3 19  1  0  0  0  0
  3 24  1  0  0  0  0
  4 13  1  0  0  0  0
  4 44  1  0  0  0  0
  5 16  1  0  0  0  0
  5 45  1  0  0  0  0
  6 17  1  0  0  0  0
  6 46  1  0  0  0  0
  7 22  1  0  0  0  0
  7 49  1  0  0  0  0
  8 25  1  0  0  0  0
  8 50  1  0  0  0  0
  9 25  1  0  0  0  0
  9 51  1  0  0  0  0
 10 26  1  0  0  0  0
 10 28  1  0  0  0  0
 11 26  2  0  0  0  0
 12 15  1  0  0  0  0
 12 19  1  0  0  0  0
 12 23  1  0  0  0  0
 12 29  1  0  0  0  0
 13 14  1  0  0  0  0
 13 16  1  0  0  0  0
 13 30  1  0  0  0  0
 14 31  1  0  0  0  0
 15 20  1  0  0  0  0
 15 21  1  0  0  0  0
 15 32  1  0  0  0  0
 16 17  1  0  0  0  0
 16 33  1  0  0  0  0
 17 18  1  0  0  0  0
 17 34  1  0  0  0  0
 18 22  1  0  0  0  0
 18 35  1  0  0  0  0
 19 36  1  0  0  0  0
 20 25  1  0  0  0  0
 20 37  1  0  0  0  0
 20 38  1  0  0  0  0
 21 24  2  0  0  0  0
 21 26  1  0  0  0  0
 22 39  1  0  0  0  0
 22 40  1  0  0  0  0
 23 27  2  0  0  0  0
 23 41  1  0  0  0  0
 24 42  1  0  0  0  0
 25 43  1  0  0  0  0
 27 47  1  0  0  0  0
 27 48  1  0  0  0  0
 28 52  1  0  0  0  0
 28 53  1  0  0  0  0
 28 54  1  0  0  0  0
M  END
> <PUBCHEM_COMPOUND_CID>
162888603

> <PUBCHEM_CONFORMER_RMSD>
1

> <PUBCHEM_CONFORMER_DIVERSEORDER>
1
32
26
11
39
38
41
40
33
6
25
23
28
30
8
7
22
10
24
29
27
19
21
16
14
17
4
36
13
34
12
3
35
31
37
18
2
15
5
9
20

> <PUBCHEM_MMFF94_PARTIAL_CHARGES>
37
1 -0.56
10 -0.43
11 -0.57
12 0.14
13 0.28
14 0.56
15 0.14
16 0.28
17 0.28
18 0.28
19 0.56
2 -0.56
21 -0.12
22 0.28
23 -0.29
24 -0.07
25 0.56
26 0.71
27 -0.3
28 0.28
3 -0.36
4 -0.68
41 0.15
42 0.15
44 0.4
45 0.4
46 0.4
47 0.15
48 0.15
49 0.4
5 -0.68
50 0.4
51 0.4
6 -0.68
7 -0.68
8 -0.68
9 -0.68

> <PUBCHEM_EFFECTIVE_ROTOR_COUNT>
10

> <PUBCHEM_PHARMACOPHORE_FEATURES>
19
1 1 acceptor
1 11 acceptor
1 2 acceptor
1 27 hydrophobe
1 3 acceptor
1 4 acceptor
1 4 donor
1 5 acceptor
1 5 donor
1 6 acceptor
1 6 donor
1 7 acceptor
1 7 donor
1 8 acceptor
1 8 donor
1 9 acceptor
1 9 donor
6 1 13 14 16 17 18 rings
6 3 12 15 19 21 24 rings

> <PUBCHEM_HEAVY_ATOM_COUNT>
28

> <PUBCHEM_ATOM_DEF_STEREO_COUNT>
8

> <PUBCHEM_ATOM_UDEF_STEREO_COUNT>
0

> <PUBCHEM_BOND_DEF_STEREO_COUNT>
0

> <PUBCHEM_BOND_UDEF_STEREO_COUNT>
0

> <PUBCHEM_ISOTOPIC_ATOM_COUNT>
0

> <PUBCHEM_COMPONENT_COUNT>
1

> <PUBCHEM_CACTVS_TAUTO_COUNT>
-1

> <PUBCHEM_CONFORMER_ID>
09B57B9B00000001

> <PUBCHEM_MMFF94_ENERGY>
69.43

> <PUBCHEM_FEATURE_SELFOVERLAP>
96.619

> <PUBCHEM_SHAPE_FINGERPRINT>
10319926 262 18115846590807611024
10366900 7 18341612564919295223
10369192 42 17840585126326598808
10498660 4 18259979349621424629
11497681 19 17415556777748509503
11578080 2 17981066394270178110
11595378 159 16515678914666119205
12236239 1 16443069378955413663
12403259 415 18411425045901176571
12788726 201 17530969047335361917
13583140 156 18340763758769353359
13757389 114 17617385421091134086
13782708 43 18202009862801083927
14178342 30 17676474035203894811
14341114 328 17677035945437997281
14739800 52 17168987962351519020
15082195 135 18040715866244364415
15324884 4 18120955037720937546
15961568 22 17970061343111610132
17349148 13 14851596674930688137
17844677 252 18131638876496691809
18186145 218 18272370862555795650
18681886 176 17895490222969252614
19377110 9 16298385799070827177
19784866 140 17773889609857424390
20511986 3 16370723734266529431
20645477 70 17632290177099326215
21792961 116 18200046023723104694
22182313 1 18342172301741209408
22393880 68 18342458149084928367
23114952 82 18130793408079579892
23559900 14 18117270363871310591
239999 70 18131069342216091494
34797466 226 18342737468462413685
460360 51 13757531980598640501
46194498 28 18060419101476396884
5081480 168 17988378000303081796
5281201 14 18131069329109818796
57724786 102 17917998274046782297
6287921 2 18196654222654220037
633830 44 18272927232898777277
6442390 28 18266175213544606386
6669772 16 18131066082921645230
6823239 73 18408888446896069556
7399639 24 18336823216564311195
7495541 125 18342184362320879414
90127 26 18272933834543164075
9709674 26 18335690599676848507

> <PUBCHEM_SHAPE_MULTIPOLES>
511.66
11.56
3.5
2.04
9.51
0.24
-0.4
-2.02
-2.57
-2.39
0.58
-2.24
-0.36
4.02

> <PUBCHEM_SHAPE_SELFOVERLAP>
1049.755

> <PUBCHEM_SHAPE_VOLUME>
289.7

> <PUBCHEM_COORDINATE_TYPE>
2
5
10

$$$$
