636723
  -OEChem-02172602563D

 31 33  0     0  0  0  0  0  0999 V2000
   -0.3712   -2.5581    0.0011 O   0  0  0  0  0  0  0  0  0  0  0  0
   -0.2000    2.7832   -0.0029 O   0  0  0  0  0  0  0  0  0  0  0  0
    4.6293    1.3311    0.0018 O   0  0  0  0  0  0  0  0  0  0  0  0
    2.1851   -2.7266   -0.0029 O   0  0  0  0  0  0  0  0  0  0  0  0
   -2.9328   -2.5619    0.0006 O   0  0  0  0  0  0  0  0  0  0  0  0
   -5.1121    1.6446    0.0008 O   0  0  0  0  0  0  0  0  0  0  0  0
    0.9643   -0.6265   -0.0004 C   0  0  0  0  0  0  0  0  0  0  0  0
    1.0093    0.7692   -0.0004 C   0  0  0  0  0  0  0  0  0  0  0  0
   -1.5804   -0.5447   -0.0002 C   0  0  0  0  0  0  0  0  0  0  0  0
   -1.5355    0.8510   -0.0003 C   0  0  0  0  0  0  0  0  0  0  0  0
   -0.3321   -1.3345   -0.0006 C   0  0  0  0  0  0  0  0  0  0  0  0
   -0.2391    1.5590   -0.0008 C   0  0  0  0  0  0  0  0  0  0  0  0
    2.1546   -1.3634   -0.0003 C   0  0  0  0  0  0  0  0  0  0  0  0
    2.2446    1.4280    0.0000 C   0  0  0  0  0  0  0  0  0  0  0  0
   -2.8158   -1.2035    0.0005 C   0  0  0  0  0  0  0  0  0  0  0  0
   -2.7259    1.5880    0.0001 C   0  0  0  0  0  0  0  0  0  0  0  0
    3.4284    0.6898    0.0003 C   0  0  0  0  0  0  0  0  0  0  0  0
    3.3835   -0.7030    0.0001 C   0  0  0  0  0  0  0  0  0  0  0  0
   -3.9547    0.9275    0.0008 C   0  0  0  0  0  0  0  0  0  0  0  0
   -3.9996   -0.4652    0.0009 C   0  0  0  0  0  0  0  0  0  0  0  0
    5.8003    0.5160    0.0020 C   0  0  0  0  0  0  0  0  0  0  0  0
    2.3000    2.5138    0.0004 H   0  0  0  0  0  0  0  0  0  0  0  0
   -2.7039    2.6751    0.0000 H   0  0  0  0  0  0  0  0  0  0  0  0
    4.2771   -1.3184    0.0000 H   0  0  0  0  0  0  0  0  0  0  0  0
   -4.9599   -0.9754    0.0012 H   0  0  0  0  0  0  0  0  0  0  0  0
    3.1061   -3.0377   -0.0026 H   0  0  0  0  0  0  0  0  0  0  0  0
   -2.0604   -2.9829   -0.0016 H   0  0  0  0  0  0  0  0  0  0  0  0
   -4.8963    2.5929    0.0007 H   0  0  0  0  0  0  0  0  0  0  0  0
    6.6626    1.1908    0.0029 H   0  0  0  0  0  0  0  0  0  0  0  0
    5.8706   -0.0889   -0.9084 H   0  0  0  0  0  0  0  0  0  0  0  0
    5.8695   -0.0900    0.9117 H   0  0  0  0  0  0  0  0  0  0  0  0
  1 11  2  0  0  0  0
  2 12  2  0  0  0  0
  3 17  1  0  0  0  0
  3 21  1  0  0  0  0
  4 13  1  0  0  0  0
  4 26  1  0  0  0  0
  5 15  1  0  0  0  0
  5 27  1  0  0  0  0
  6 19  1  0  0  0  0
  6 28  1  0  0  0  0
  7  8  2  0  0  0  0
  7 11  1  0  0  0  0
  7 13  1  0  0  0  0
  8 12  1  0  0  0  0
  8 14  1  0  0  0  0
  9 10  2  0  0  0  0
  9 11  1  0  0  0  0
  9 15  1  0  0  0  0
 10 12  1  0  0  0  0
 10 16  1  0  0  0  0
 13 18  2  0  0  0  0
 14 17  2  0  0  0  0
 14 22  1  0  0  0  0
 15 20  2  0  0  0  0
 16 19  2  0  0  0  0
 16 23  1  0  0  0  0
 17 18  1  0  0  0  0
 18 24  1  0  0  0  0
 19 20  1  0  0  0  0
 20 25  1  0  0  0  0
 21 29  1  0  0  0  0
 21 30  1  0  0  0  0
 21 31  1  0  0  0  0
M  END
> <PUBCHEM_COMPOUND_CID>
636723

> <PUBCHEM_CONFORMER_RMSD>
0.6

> <PUBCHEM_CONFORMER_DIVERSEORDER>
1

> <PUBCHEM_MMFF94_PARTIAL_CHARGES>
28
1 -0.57
10 0.09
11 0.4
12 0.4
13 0.08
14 -0.15
15 0.08
16 -0.15
17 0.08
18 -0.15
19 0.08
2 -0.57
20 -0.15
21 0.28
22 0.15
23 0.15
24 0.15
25 0.15
26 0.45
27 0.45
28 0.45
3 -0.36
4 -0.53
5 -0.53
6 -0.53
7 0.09
8 0.09
9 0.09

> <PUBCHEM_EFFECTIVE_ROTOR_COUNT>
1

> <PUBCHEM_PHARMACOPHORE_FEATURES>
9
1 1 acceptor
1 2 acceptor
1 3 acceptor
1 4 donor
1 5 donor
1 6 donor
6 7 8 13 14 17 18 rings
6 7 8 9 10 11 12 rings
6 9 10 15 16 19 20 rings

> <PUBCHEM_HEAVY_ATOM_COUNT>
21

> <PUBCHEM_ATOM_DEF_STEREO_COUNT>
0

> <PUBCHEM_ATOM_UDEF_STEREO_COUNT>
0

> <PUBCHEM_BOND_DEF_STEREO_COUNT>
0

> <PUBCHEM_BOND_UDEF_STEREO_COUNT>
0

> <PUBCHEM_ISOTOPIC_ATOM_COUNT>
0

> <PUBCHEM_COMPONENT_COUNT>
1

> <PUBCHEM_CACTVS_TAUTO_COUNT>
57

> <PUBCHEM_CONFORMER_ID>
0009B73300000001

> <PUBCHEM_MMFF94_ENERGY>
74.091

> <PUBCHEM_FEATURE_SELFOVERLAP>
45.714

> <PUBCHEM_SHAPE_FINGERPRINT>
10411042 1 17401769017700205218
10493431 412 18340776953372967425
10498660 4 18410577275397249316
10616163 171 18411420656439526567
10967382 1 18338517439117217927
11132069 177 18410291415005695793
11578080 2 16952519188075879038
12011746 2 18412260653173779157
12236239 1 17822009830999779488
12403814 3 17603580829181711213
12788726 201 17416972729354568873
12838862 33 18338497690990031381
12954195 1 17986132742167238660
13132413 78 18340206387841072093
13140716 1 18337113345794842723
13214271 11 18341893021519134935
138480 1 17689997834345947043
14790565 3 18337961202551907244
15196674 1 18410855451554226854
15442244 35 18194964028585042066
15536298 74 18342459201462113886
1601671 61 18410575089269639856
16087824 20 18412260667636228255
16945 1 18194683906686377927
19591789 44 18195246839407169544
19784866 170 18408887334578245400
200 152 17989203763246143741
20510252 161 18271808977796851704
20642791 178 18115881860805368684
20739085 24 17976850613139229729
21267235 1 18338243772407180971
21279426 13 18340491058779742918
21421861 104 17897155832682525450
22182313 1 18270702924949786063
2334 1 18410855481835295235
23366157 5 18041847186701081802
23402539 116 18342451577921472516
23402655 69 18343299249556762301
23463225 33 18408885113826906741
23557571 272 18272660090091075774
23559900 14 18342175536532091198
2748010 2 18411139125749352527
335352 9 18338516344333204478
34934 24 18410569570120392587
350125 39 18266182906300258969
3545911 37 18411139129886096621
4214541 1 18410855485924586176
474 4 17821733870491895820
5104073 3 18409729551700113218
58051976 378 18412545388320986708
59755656 215 18340492167134571366
7364860 26 18269274573904745358
9709674 26 18411986861967758230

> <PUBCHEM_SHAPE_MULTIPOLES>
396.95
9.1
2.65
0.59
3.82
0.82
0
-2.56
-0.01
-0.7
0
0.01
-0.01
0

> <PUBCHEM_SHAPE_SELFOVERLAP>
897.459

> <PUBCHEM_SHAPE_VOLUME>
206.6

> <PUBCHEM_COORDINATE_TYPE>
2
5
10

$$$$
