91471
  -OEChem-02172602313D

 42 45  0     1  0  0  0  0  0999 V2000
   -2.6250    1.7251    1.6668 O   0  0  0  0  0  0  0  0  0  0  0  0
    1.1818   -0.5257    0.4919 N   0  0  1  0  0  0  0  0  0  0  0  0
   -1.4788    0.6385   -0.0413 N   0  0  0  0  0  0  0  0  0  0  0  0
    0.7283    1.5172   -0.8948 C   0  0  1  0  0  0  0  0  0  0  0  0
   -0.0670   -0.6871   -1.6676 C   0  0  2  0  0  0  0  0  0  0  0  0
    1.6518    0.8319    0.1522 C   0  0  2  0  0  0  0  0  0  0  0  0
    0.5409    0.6382   -2.1324 C   0  0  0  0  0  0  0  0  0  0  0  0
   -1.4812   -0.4161   -1.0781 C   0  0  1  0  0  0  0  0  0  0  0  0
    0.9230   -1.3583   -0.6882 C   0  0  0  0  0  0  0  0  0  0  0  0
   -0.6592    1.8275   -0.3056 C   0  0  0  0  0  0  0  0  0  0  0  0
    3.1291    0.8513   -0.2950 C   0  0  0  0  0  0  0  0  0  0  0  0
   -2.1669   -1.7055   -0.6215 C   0  0  0  0  0  0  0  0  0  0  0  0
    2.0517   -1.1827    1.4724 C   0  0  0  0  0  0  0  0  0  0  0  0
    4.0322    0.1873    0.7403 C   0  0  0  0  0  0  0  0  0  0  0  0
    3.5283   -1.2107    1.0773 C   0  0  0  0  0  0  0  0  0  0  0  0
   -3.5186   -1.3670   -0.0232 C   0  0  0  0  0  0  0  0  0  0  0  0
   -2.4636    0.7351    0.9473 C   0  0  0  0  0  0  0  0  0  0  0  0
   -3.3066   -0.4991    1.1997 C   0  0  0  0  0  0  0  0  0  0  0  0
    1.1839    2.4686   -1.1974 H   0  0  0  0  0  0  0  0  0  0  0  0
   -0.1786   -1.3455   -2.5389 H   0  0  0  0  0  0  0  0  0  0  0  0
    1.5923    1.4344    1.0700 H   0  0  0  0  0  0  0  0  0  0  0  0
   -0.1172    1.1304   -2.8591 H   0  0  0  0  0  0  0  0  0  0  0  0
    1.4940    0.4668   -2.6446 H   0  0  0  0  0  0  0  0  0  0  0  0
   -2.0944    0.0038   -1.8893 H   0  0  0  0  0  0  0  0  0  0  0  0
    0.5252   -2.3306   -0.3786 H   0  0  0  0  0  0  0  0  0  0  0  0
    1.8537   -1.5759   -1.2274 H   0  0  0  0  0  0  0  0  0  0  0  0
   -0.5536    2.4179    0.6118 H   0  0  0  0  0  0  0  0  0  0  0  0
   -1.2302    2.4451   -1.0107 H   0  0  0  0  0  0  0  0  0  0  0  0
    3.4570    1.8872   -0.4433 H   0  0  0  0  0  0  0  0  0  0  0  0
    3.2595    0.3411   -1.2558 H   0  0  0  0  0  0  0  0  0  0  0  0
   -1.5732   -2.2308    0.1342 H   0  0  0  0  0  0  0  0  0  0  0  0
   -2.2923   -2.3863   -1.4711 H   0  0  0  0  0  0  0  0  0  0  0  0
    1.7011   -2.2030    1.6702 H   0  0  0  0  0  0  0  0  0  0  0  0
    1.9520   -0.6515    2.4280 H   0  0  0  0  0  0  0  0  0  0  0  0
    4.0548    0.7982    1.6511 H   0  0  0  0  0  0  0  0  0  0  0  0
    5.0597    0.1351    0.3636 H   0  0  0  0  0  0  0  0  0  0  0  0
    3.6768   -1.8740    0.2170 H   0  0  0  0  0  0  0  0  0  0  0  0
    4.1210   -1.6253    1.9007 H   0  0  0  0  0  0  0  0  0  0  0  0
   -4.0469   -2.2845    0.2582 H   0  0  0  0  0  0  0  0  0  0  0  0
   -4.1399   -0.8437   -0.7599 H   0  0  0  0  0  0  0  0  0  0  0  0
   -2.8120   -1.0739    1.9919 H   0  0  0  0  0  0  0  0  0  0  0  0
   -4.2808   -0.1763    1.5842 H   0  0  0  0  0  0  0  0  0  0  0  0
  1 17  2  0  0  0  0
  2  6  1  0  0  0  0
  2  9  1  0  0  0  0
  2 13  1  0  0  0  0
  3  8  1  0  0  0  0
  3 10  1  0  0  0  0
  3 17  1  0  0  0  0
  4  6  1  0  0  0  0
  4  7  1  0  0  0  0
  4 10  1  0  0  0  0
  4 19  1  0  0  0  0
  5  7  1  0  0  0  0
  5  8  1  0  0  0  0
  5  9  1  0  0  0  0
  5 20  1  0  0  0  0
  6 11  1  0  0  0  0
  6 21  1  0  0  0  0
  7 22  1  0  0  0  0
  7 23  1  0  0  0  0
  8 12  1  0  0  0  0
  8 24  1  0  0  0  0
  9 25  1  0  0  0  0
  9 26  1  0  0  0  0
 10 27  1  0  0  0  0
 10 28  1  0  0  0  0
 11 14  1  0  0  0  0
 11 29  1  0  0  0  0
 11 30  1  0  0  0  0
 12 16  1  0  0  0  0
 12 31  1  0  0  0  0
 12 32  1  0  0  0  0
 13 15  1  0  0  0  0
 13 33  1  0  0  0  0
 13 34  1  0  0  0  0
 14 15  1  0  0  0  0
 14 35  1  0  0  0  0
 14 36  1  0  0  0  0
 15 37  1  0  0  0  0
 15 38  1  0  0  0  0
 16 18  1  0  0  0  0
 16 39  1  0  0  0  0
 16 40  1  0  0  0  0
 17 18  1  0  0  0  0
 18 41  1  0  0  0  0
 18 42  1  0  0  0  0
M  END
> <PUBCHEM_COMPOUND_CID>
91471

> <PUBCHEM_CONFORMER_RMSD>
0.6

> <PUBCHEM_CONFORMER_DIVERSEORDER>
1

> <PUBCHEM_MMFF94_PARTIAL_CHARGES>
10
1 -0.57
10 0.3
13 0.27
17 0.57
18 0.06
2 -0.81
3 -0.66
6 0.27
8 0.3
9 0.27

> <PUBCHEM_EFFECTIVE_ROTOR_COUNT>
2

> <PUBCHEM_PHARMACOPHORE_FEATURES>
6
1 1 acceptor
1 2 cation
6 2 4 5 6 7 9 rings
6 2 6 11 13 14 15 rings
6 3 4 5 7 8 10 rings
6 3 8 12 16 17 18 rings

> <PUBCHEM_HEAVY_ATOM_COUNT>
18

> <PUBCHEM_ATOM_DEF_STEREO_COUNT>
4

> <PUBCHEM_ATOM_UDEF_STEREO_COUNT>
0

> <PUBCHEM_BOND_DEF_STEREO_COUNT>
0

> <PUBCHEM_BOND_UDEF_STEREO_COUNT>
0

> <PUBCHEM_ISOTOPIC_ATOM_COUNT>
0

> <PUBCHEM_COMPONENT_COUNT>
1

> <PUBCHEM_CACTVS_TAUTO_COUNT>
1

> <PUBCHEM_CONFORMER_ID>
0001654F00000001

> <PUBCHEM_MMFF94_ENERGY>
29.9466

> <PUBCHEM_FEATURE_SELFOVERLAP>
32.15

> <PUBCHEM_SHAPE_FINGERPRINT>
10948715 1 12751242531629209527
11471102 22 17603299384232601102
11680611 10 18337971063875141101
12202030 40 16226036774068496562
12251169 10 18343584040269265969
12382932 28 18272375217805757513
12596599 1 18335697217826144386
12633257 1 18123748656164129682
12716301 132 17544773226173362388
12892183 10 18059850688493171882
13299463 15 11386662788149497269
13464514 151 14475866012041258098
13544653 18 17095521781821297210
13581323 91 17846500369554024869
13764800 53 17131835343756613489
14787075 74 17115219824432132932
14817 1 10439973226321179332
15219456 202 16486708999208087060
15309172 13 18341320141897048918
15375462 189 18261674873528037411
15375462 478 18272647995552697959
15775835 57 10231763300821315043
16945 1 18267866086297342164
17834072 14 15719388455840054118
17844478 74 17385996244299646134
1813 80 17822303340385261334
18186145 218 12895075141269834840
18219364 16 14908175356825416907
18981168 100 14836397008591848079
19422 9 18411981369141903738
19862831 5 7997974578446728586
19868273 293 10881391028635675635
200 152 17968362524610405611
20361792 2 17095527274862929135
20653085 51 12535335835719136884
20871999 31 13407063804454229607
21069387 34 17604148250523238947
21524375 3 13254788075019644038
21731516 1 17604443906922570783
22112679 90 18339371849978422613
22445834 79 18335701662842391243
231179 274 13973696000514793731
23402539 116 16773222020387258095
23419403 2 14824498231427021341
23557571 272 16845020125507642303
23559900 14 17560260032123573381
23566358 27 18334584499711769198
25 1 13542473072250902172
2748010 2 17763753087242701349
296302 2 16081368583004128876
427121 178 17273721791919800963
5262128 65 13262694641882152079
568465 68 16805329915432632808
7097593 13 18339358540027785610
77492 1 18337958994574012212
81228 2 15792556453564004940
90316 7 18410858728757237833

> <PUBCHEM_SHAPE_MULTIPOLES>
354.6
5.91
1.84
1.67
1.19
0.12
-0.16
-2.13
2.43
0.17
0.05
-0.75
0.17
-0.94

> <PUBCHEM_SHAPE_SELFOVERLAP>
753.762

> <PUBCHEM_SHAPE_VOLUME>
190.4

> <PUBCHEM_COORDINATE_TYPE>
2
5
10

$$$$
