5319480
  -OEChem-02172602413D

 31 33  0     0  0  0  0  0  0999 V2000
    1.0325   -2.1996    0.2709 O   0  0  0  0  0  0  0  0  0  0  0  0
    3.6293   -1.6716    0.2475 O   0  0  0  0  0  0  0  0  0  0  0  0
    4.5557    0.9158    0.0256 O   0  0  0  0  0  0  0  0  0  0  0  0
   -5.1914   -0.4690    0.0643 O   0  0  0  0  0  0  0  0  0  0  0  0
    0.4168    0.1667    0.0553 C   0  0  0  0  0  0  0  0  0  0  0  0
   -1.0091   -0.0336    0.0610 C   0  0  0  0  0  0  0  0  0  0  0  0
    0.9302    1.4852   -0.0569 C   0  0  0  0  0  0  0  0  0  0  0  0
   -1.8669    1.0923   -0.0451 C   0  0  0  0  0  0  0  0  0  0  0  0
    1.3676   -0.8798    0.1559 C   0  0  0  0  0  0  0  0  0  0  0  0
    0.0538    2.5684   -0.1596 C   0  0  0  0  0  0  0  0  0  0  0  0
   -1.3237    2.3749   -0.1536 C   0  0  0  0  0  0  0  0  0  0  0  0
    2.3167    1.7144   -0.0655 C   0  0  0  0  0  0  0  0  0  0  0  0
   -1.6337   -1.3016    0.1672 C   0  0  0  0  0  0  0  0  0  0  0  0
    2.7440   -0.6380    0.1464 C   0  0  0  0  0  0  0  0  0  0  0  0
   -3.2629    0.9304   -0.0418 C   0  0  0  0  0  0  0  0  0  0  0  0
    3.2187    0.6597    0.0356 C   0  0  0  0  0  0  0  0  0  0  0  0
   -3.0235   -1.4485    0.1687 C   0  0  0  0  0  0  0  0  0  0  0  0
   -3.8383   -0.3319    0.0644 C   0  0  0  0  0  0  0  0  0  0  0  0
    0.8843   -2.9342   -0.9404 C   0  0  0  0  0  0  0  0  0  0  0  0
    0.4338    3.5847   -0.2461 H   0  0  0  0  0  0  0  0  0  0  0  0
   -1.9699    3.2470   -0.2357 H   0  0  0  0  0  0  0  0  0  0  0  0
    2.6955    2.7320   -0.1521 H   0  0  0  0  0  0  0  0  0  0  0  0
   -1.1101   -2.2300    0.3228 H   0  0  0  0  0  0  0  0  0  0  0  0
   -3.9151    1.7989   -0.1235 H   0  0  0  0  0  0  0  0  0  0  0  0
   -3.4528   -2.4423    0.2668 H   0  0  0  0  0  0  0  0  0  0  0  0
    4.5318   -1.3087    0.2223 H   0  0  0  0  0  0  0  0  0  0  0  0
    0.3329   -2.3694   -1.6995 H   0  0  0  0  0  0  0  0  0  0  0  0
    0.3423   -3.8590   -0.7228 H   0  0  0  0  0  0  0  0  0  0  0  0
    1.8698   -3.2012   -1.3348 H   0  0  0  0  0  0  0  0  0  0  0  0
    4.6956    1.8747   -0.0579 H   0  0  0  0  0  0  0  0  0  0  0  0
   -5.4130   -1.4127    0.1444 H   0  0  0  0  0  0  0  0  0  0  0  0
  1  9  1  0  0  0  0
  1 19  1  0  0  0  0
  2 14  1  0  0  0  0
  2 26  1  0  0  0  0
  3 16  1  0  0  0  0
  3 30  1  0  0  0  0
  4 18  1  0  0  0  0
  4 31  1  0  0  0  0
  5  6  1  0  0  0  0
  5  7  1  0  0  0  0
  5  9  2  0  0  0  0
  6  8  2  0  0  0  0
  6 13  1  0  0  0  0
  7 10  1  0  0  0  0
  7 12  2  0  0  0  0
  8 11  1  0  0  0  0
  8 15  1  0  0  0  0
  9 14  1  0  0  0  0
 10 11  2  0  0  0  0
 10 20  1  0  0  0  0
 11 21  1  0  0  0  0
 12 16  1  0  0  0  0
 12 22  1  0  0  0  0
 13 17  2  0  0  0  0
 13 23  1  0  0  0  0
 14 16  2  0  0  0  0
 15 18  2  0  0  0  0
 15 24  1  0  0  0  0
 17 18  1  0  0  0  0
 17 25  1  0  0  0  0
 19 27  1  0  0  0  0
 19 28  1  0  0  0  0
 19 29  1  0  0  0  0
M  END
> <PUBCHEM_COMPOUND_CID>
5319480

> <PUBCHEM_CONFORMER_RMSD>
0.6

> <PUBCHEM_CONFORMER_DIVERSEORDER>
1

> <PUBCHEM_MMFF94_PARTIAL_CHARGES>
24
1 -0.36
10 -0.15
11 -0.15
12 -0.15
13 -0.15
14 0.08
15 -0.15
16 0.08
17 -0.15
18 0.08
19 0.28
2 -0.53
20 0.15
21 0.15
22 0.15
23 0.15
24 0.15
25 0.15
26 0.45
3 -0.53
30 0.45
31 0.45
4 -0.53
9 0.08

> <PUBCHEM_EFFECTIVE_ROTOR_COUNT>
1

> <PUBCHEM_PHARMACOPHORE_FEATURES>
7
1 1 acceptor
1 2 donor
1 3 donor
1 4 donor
6 5 6 7 8 10 11 rings
6 5 7 9 12 14 16 rings
6 6 8 13 15 17 18 rings

> <PUBCHEM_HEAVY_ATOM_COUNT>
19

> <PUBCHEM_ATOM_DEF_STEREO_COUNT>
0

> <PUBCHEM_ATOM_UDEF_STEREO_COUNT>
0

> <PUBCHEM_BOND_DEF_STEREO_COUNT>
0

> <PUBCHEM_BOND_UDEF_STEREO_COUNT>
0

> <PUBCHEM_ISOTOPIC_ATOM_COUNT>
0

> <PUBCHEM_COMPONENT_COUNT>
1

> <PUBCHEM_CACTVS_TAUTO_COUNT>
78

> <PUBCHEM_CONFORMER_ID>
00512B3800000001

> <PUBCHEM_MMFF94_ENERGY>
78.2272

> <PUBCHEM_FEATURE_SELFOVERLAP>
35.574

> <PUBCHEM_SHAPE_FINGERPRINT>
10616163 171 18410578391861756413
10906281 52 18263100897513277537
10967382 1 18410293648341080427
11132069 177 18409725175096795856
11471102 20 18409443709052768101
11578080 2 16663165093787007382
12011746 2 18410294735020567172
12553582 1 18411130346962631093
13140716 1 18194406825577301489
13221675 6 18410011043814351177
13380535 76 18408324414642369315
14178342 30 18051684456751447384
14223421 5 18267022747756422660
14790565 3 18193849355834175996
15196674 1 18409448055285540393
15442244 35 18265895748374862616
15536298 74 18413952780331343088
16945 1 18266743467650678300
193761 8 18122344566788171308
19591789 44 18050290563427253414
200 152 18201712973243925493
20510252 161 18343582906366829728
20645477 70 18409726262266918615
20905425 154 18196092144731841894
21267235 1 18409457993871453419
21421861 104 17970064435576915827
21501502 16 18337956658185844584
221490 88 18045789146012645107
22721475 48 18410016489938501009
23184049 29 17904479606209499794
2334 1 18266459986802674248
23402539 116 18270955868769453022
23463225 33 18408323297792499740
23558518 356 18117285752517696569
23559900 14 18195237828861201242
2748010 2 18337952401873182716
2871803 45 18335136470974024677
335352 9 18193555558416152861
34934 24 18337946891371905307
350125 39 18411136901526070352
5104073 3 18410010996664910793
537710 114 18336551598210652997
7364860 26 18413390929662683219
81228 2 18118137874208389185
8809292 202 18259990361706360683
9709674 26 18338521833164667575

> <PUBCHEM_SHAPE_MULTIPOLES>
367.53
7.01
2.82
0.66
2.21
0.39
-0.05
0.75
0.45
-0.75
-0.44
-0.03
0.13
0.12

> <PUBCHEM_SHAPE_SELFOVERLAP>
828.254

> <PUBCHEM_SHAPE_VOLUME>
194.7

> <PUBCHEM_COORDINATE_TYPE>
2
5
10

$$$$
