10115047
  -OEChem-02172602533D

 61 65  0     0  0  0  0  0  0999 V2000
   -5.5885    1.4059    0.7264 O   0  0  0  0  0  0  0  0  0  0  0  0
    7.0375   -1.3570   -0.5713 O   0  0  0  0  0  0  0  0  0  0  0  0
   -5.3147   -0.8283    0.0410 N   0  0  0  0  0  0  0  0  0  0  0  0
    1.1311   -0.4883   -0.1369 N   0  0  0  0  0  0  0  0  0  0  0  0
    0.9069   -2.6474    0.3400 N   0  0  0  0  0  0  0  0  0  0  0  0
    6.2207    0.7401    0.0927 N   0  0  0  0  0  0  0  0  0  0  0  0
    7.2371    2.8619    0.3390 N   0  0  0  0  0  0  0  0  0  0  0  0
   -7.5090    0.0956    0.2210 C   0  0  0  0  0  0  0  0  0  0  0  0
   -7.9080    0.3540   -1.2351 C   0  0  0  0  0  0  0  0  0  0  0  0
   -8.2656    0.8885    1.2921 C   0  0  0  0  0  0  0  0  0  0  0  0
   -9.4015    0.5593   -1.4734 C   0  0  0  0  0  0  0  0  0  0  0  0
   -8.5715    2.3419    0.9316 C   0  0  0  0  0  0  0  0  0  0  0  0
   -9.8354    2.0120   -1.2895 C   0  0  0  0  0  0  0  0  0  0  0  0
   -9.8770    2.4986    0.1545 C   0  0  0  0  0  0  0  0  0  0  0  0
   -6.0277    0.3187    0.3658 C   0  0  0  0  0  0  0  0  0  0  0  0
   -3.9106   -1.0028    0.0568 C   0  0  0  0  0  0  0  0  0  0  0  0
   -3.3760   -2.2288   -0.3029 C   0  0  0  0  0  0  0  0  0  0  0  0
   -3.1004    0.0561    0.4316 C   0  0  0  0  0  0  0  0  0  0  0  0
   -1.1619   -1.3442    0.0872 C   0  0  0  0  0  0  0  0  0  0  0  0
   -1.9918   -2.4007   -0.2877 C   0  0  0  0  0  0  0  0  0  0  0  0
   -1.7162   -0.1157    0.4468 C   0  0  0  0  0  0  0  0  0  0  0  0
    0.2696   -1.5223    0.1041 C   0  0  0  0  0  0  0  0  0  0  0  0
    2.4088   -0.9787   -0.0510 C   0  0  0  0  0  0  0  0  0  0  0  0
    2.2422   -2.3281    0.2475 C   0  0  0  0  0  0  0  0  0  0  0  0
    3.6578   -0.3760   -0.2042 C   0  0  0  0  0  0  0  0  0  0  0  0
    3.3781   -3.1398    0.4062 C   0  0  0  0  0  0  0  0  0  0  0  0
    4.7776   -1.1987   -0.0429 C   0  0  0  0  0  0  0  0  0  0  0  0
    4.6425   -2.5563    0.2569 C   0  0  0  0  0  0  0  0  0  0  0  0
    6.1077   -0.6277   -0.1913 C   0  0  0  0  0  0  0  0  0  0  0  0
    7.3701    1.5644    0.0142 C   0  0  0  0  0  0  0  0  0  0  0  0
    8.5407    0.9620   -0.3933 C   0  0  0  0  0  0  0  0  0  0  0  0
    9.6749    1.7622   -0.4745 C   0  0  0  0  0  0  0  0  0  0  0  0
    8.3607    3.6082    0.2482 C   0  0  0  0  0  0  0  0  0  0  0  0
    9.5918    3.1116   -0.1493 C   0  0  0  0  0  0  0  0  0  0  0  0
   -7.7156   -0.9616    0.4421 H   0  0  0  0  0  0  0  0  0  0  0  0
   -7.5863   -0.5148   -1.8259 H   0  0  0  0  0  0  0  0  0  0  0  0
   -7.3454    1.2019   -1.6480 H   0  0  0  0  0  0  0  0  0  0  0  0
   -9.2032    0.3690    1.5289 H   0  0  0  0  0  0  0  0  0  0  0  0
   -7.6865    0.8773    2.2254 H   0  0  0  0  0  0  0  0  0  0  0  0
  -10.0005   -0.1138   -0.8496 H   0  0  0  0  0  0  0  0  0  0  0  0
   -9.6132    0.2868   -2.5153 H   0  0  0  0  0  0  0  0  0  0  0  0
   -7.7437    2.8139    0.3921 H   0  0  0  0  0  0  0  0  0  0  0  0
   -8.6854    2.8992    1.8703 H   0  0  0  0  0  0  0  0  0  0  0  0
  -10.8409    2.1281   -1.7132 H   0  0  0  0  0  0  0  0  0  0  0  0
   -9.1815    2.6695   -1.8760 H   0  0  0  0  0  0  0  0  0  0  0  0
  -10.1472    3.5621    0.1445 H   0  0  0  0  0  0  0  0  0  0  0  0
  -10.6872    1.9855    0.6876 H   0  0  0  0  0  0  0  0  0  0  0  0
   -5.8426   -1.6480   -0.2507 H   0  0  0  0  0  0  0  0  0  0  0  0
   -4.0135   -3.0579   -0.5973 H   0  0  0  0  0  0  0  0  0  0  0  0
   -3.4540    1.0332    0.7258 H   0  0  0  0  0  0  0  0  0  0  0  0
   -1.5805   -3.3656   -0.5744 H   0  0  0  0  0  0  0  0  0  0  0  0
   -1.0978    0.7230    0.7569 H   0  0  0  0  0  0  0  0  0  0  0  0
    0.8846    0.4682   -0.3554 H   0  0  0  0  0  0  0  0  0  0  0  0
    3.7137    0.6722   -0.4729 H   0  0  0  0  0  0  0  0  0  0  0  0
    3.2832   -4.1953    0.6404 H   0  0  0  0  0  0  0  0  0  0  0  0
    5.5182   -3.1886    0.3865 H   0  0  0  0  0  0  0  0  0  0  0  0
    5.4081    1.2430    0.4368 H   0  0  0  0  0  0  0  0  0  0  0  0
    8.6860   -0.0703   -0.6611 H   0  0  0  0  0  0  0  0  0  0  0  0
   10.6229    1.3368   -0.7904 H   0  0  0  0  0  0  0  0  0  0  0  0
    8.2429    4.6539    0.5125 H   0  0  0  0  0  0  0  0  0  0  0  0
   10.4629    3.7542   -0.2053 H   0  0  0  0  0  0  0  0  0  0  0  0
  1 15  2  0  0  0  0
  2 29  2  0  0  0  0
  3 15  1  0  0  0  0
  3 16  1  0  0  0  0
  3 48  1  0  0  0  0
  4 22  1  0  0  0  0
  4 23  1  0  0  0  0
  4 53  1  0  0  0  0
  5 22  2  0  0  0  0
  5 24  1  0  0  0  0
  6 29  1  0  0  0  0
  6 30  1  0  0  0  0
  6 57  1  0  0  0  0
  7 30  1  0  0  0  0
  7 33  2  0  0  0  0
  8  9  1  0  0  0  0
  8 10  1  0  0  0  0
  8 15  1  0  0  0  0
  8 35  1  0  0  0  0
  9 11  1  0  0  0  0
  9 36  1  0  0  0  0
  9 37  1  0  0  0  0
 10 12  1  0  0  0  0
 10 38  1  0  0  0  0
 10 39  1  0  0  0  0
 11 13  1  0  0  0  0
 11 40  1  0  0  0  0
 11 41  1  0  0  0  0
 12 14  1  0  0  0  0
 12 42  1  0  0  0  0
 12 43  1  0  0  0  0
 13 14  1  0  0  0  0
 13 44  1  0  0  0  0
 13 45  1  0  0  0  0
 14 46  1  0  0  0  0
 14 47  1  0  0  0  0
 16 17  2  0  0  0  0
 16 18  1  0  0  0  0
 17 20  1  0  0  0  0
 17 49  1  0  0  0  0
 18 21  2  0  0  0  0
 18 50  1  0  0  0  0
 19 20  2  0  0  0  0
 19 21  1  0  0  0  0
 19 22  1  0  0  0  0
 20 51  1  0  0  0  0
 21 52  1  0  0  0  0
 23 24  2  0  0  0  0
 23 25  1  0  0  0  0
 24 26  1  0  0  0  0
 25 27  2  0  0  0  0
 25 54  1  0  0  0  0
 26 28  2  0  0  0  0
 26 55  1  0  0  0  0
 27 28  1  0  0  0  0
 27 29  1  0  0  0  0
 28 56  1  0  0  0  0
 30 31  2  0  0  0  0
 31 32  1  0  0  0  0
 31 58  1  0  0  0  0
 32 34  2  0  0  0  0
 32 59  1  0  0  0  0
 33 34  1  0  0  0  0
 33 60  1  0  0  0  0
 34 61  1  0  0  0  0
M  END
> <PUBCHEM_COMPOUND_CID>
10115047

> <PUBCHEM_CONFORMER_RMSD>
1

> <PUBCHEM_CONFORMER_DIVERSEORDER>
1
28
4
10
15
7
23
22
32
6
12
21
3
20
29
26
2
11
14
18
31
30
8
9
17
16
24
25
13
27
5
19

> <PUBCHEM_MMFF94_PARTIAL_CHARGES>
42
1 -0.57
15 0.57
16 0.12
17 -0.15
18 -0.15
19 0.05
2 -0.57
20 -0.15
21 -0.15
22 0.13
23 -0.15
24 0.23
25 -0.15
26 -0.15
27 0.09
28 -0.15
29 0.54
3 -0.55
30 0.43
31 -0.15
32 -0.15
33 0.16
34 -0.15
4 0.03
48 0.37
49 0.15
5 -0.57
50 0.15
51 0.15
52 0.15
53 0.27
54 0.15
55 0.15
56 0.15
57 0.37
58 0.15
59 0.15
6 -0.55
60 0.15
61 0.15
7 -0.62
8 0.06

> <PUBCHEM_EFFECTIVE_ROTOR_COUNT>
8.4

> <PUBCHEM_PHARMACOPHORE_FEATURES>
12
1 1 acceptor
1 2 acceptor
1 3 donor
1 4 donor
1 6 donor
1 7 acceptor
3 4 5 22 cation
5 4 5 22 23 24 rings
6 16 17 18 19 20 21 rings
6 23 24 25 26 27 28 rings
6 7 30 31 32 33 34 rings
7 8 9 10 11 12 13 14 rings

> <PUBCHEM_HEAVY_ATOM_COUNT>
34

> <PUBCHEM_ATOM_DEF_STEREO_COUNT>
0

> <PUBCHEM_ATOM_UDEF_STEREO_COUNT>
0

> <PUBCHEM_BOND_DEF_STEREO_COUNT>
0

> <PUBCHEM_BOND_UDEF_STEREO_COUNT>
0

> <PUBCHEM_ISOTOPIC_ATOM_COUNT>
0

> <PUBCHEM_COMPONENT_COUNT>
1

> <PUBCHEM_CACTVS_TAUTO_COUNT>
41

> <PUBCHEM_CONFORMER_ID>
009A57E700000001

> <PUBCHEM_MMFF94_ENERGY>
98.4884

> <PUBCHEM_FEATURE_SELFOVERLAP>
61.005

> <PUBCHEM_SHAPE_FINGERPRINT>
10 15 18040152929181197058
10029044 110 18408322202755590248
10280341 67 18129370661888162504
10533779 47 15140954003066456176
10625338 86 17603579700127688469
10930396 42 16588021334045236437
11061554 47 17967526845067593773
11181472 205 18129669582177808611
11211813 74 18411700985371788004
11315181 36 18341894062246477123
11386260 185 14836114490407831002
11421887 45 18197205053265908912
11456790 92 13984381071909694527
11578821 258 18410292497929162069
11607047 141 17676758766362246786
11607047 74 10231168457317376106
12013929 94 18339363089290500795
12089408 11 18201718423478640511
12539765 74 18131356280159802822
12592606 108 9367351427213803538
13248334 5 18338801092904423090
13383665 225 16342878546616984473
13530399 1 18271249314390704609
13553643 46 18262796264400565029
13947947 74 18273214222350142400
13974486 7 10374500759087112524
14251920 17 18408039625063768493
14394314 77 18409167753093578940
14617042 71 18408889550897856476
15198563 99 14836133113217325619
15347591 1 18411702119207562358
15455200 26 17770486849758086808
15461852 350 17489298673898287479
15604295 49 18261107423499527381
1577012 14 18411415120179631502
15840311 113 18409453566414390390
15890870 6 18410013278337159376
16992787 43 18411135831399114909
1754911 235 18202002131236731397
19302320 297 17894632591337088260
19315958 150 18410015411833709598
20105231 36 11095879394129330461
2026 5 9799423216988250644
20609170 84 17168966981711014404
20766409 102 18341054034915528761
20771845 171 17274829000425001158
21362267 2 18336535071193011197
21585482 111 18409167744936297356
21792934 111 18341887486493246274
23523787 8 16200158742393300782
23523788 1 12830025796557738624
23524908 199 17846228740093031206
23569943 247 9582152027733723060
23576562 1 16629383913462696025
24771293 8 18187926217769460062
2835820 83 9222962469702695144
306946 40 17385994071468344189
3711267 37 18341907276848549473
3918712 181 18341327907804880968
406291 66 9007062357085320080
4073 2 18334580169662743882
4403749 210 18261398896706624043
4516262 110 18408601448507104726
4760202 170 18131069368661525008
5047190 47 18059288889881883944
54583773 228 18341609361274852935
5937810 71 18411976988280758055
6201320 215 12396564219338654775
636775 72 18409731725908924457
9937071 3 9871746888586876620
9962374 69 8574424301659140978
9980921 7 18333446565627998829

> <PUBCHEM_SHAPE_MULTIPOLES>
663.06
40.14
3.77
0.92
14.29
1.04
0.11
46.48
5.29
-6.69
-0.31
2.07
0.27
-0.32

> <PUBCHEM_SHAPE_SELFOVERLAP>
1455.596

> <PUBCHEM_SHAPE_VOLUME>
355.2

> <PUBCHEM_COORDINATE_TYPE>
2
5
10

$$$$
