12304738
  -OEChem-02172602583D

 52 55  0     1  0  0  0  0  0999 V2000
   -3.9118   -0.2935   -0.6148 O   0  0  0  0  0  0  0  0  0  0  0  0
   -3.0813    1.5175    0.5996 O   0  0  0  0  0  0  0  0  0  0  0  0
   -7.7922    0.7531    0.2300 O   0  0  0  0  0  0  0  0  0  0  0  0
   -7.1969   -1.9084   -0.7281 O   0  0  0  0  0  0  0  0  0  0  0  0
   -5.5841    1.7676    1.8961 O   0  0  0  0  0  0  0  0  0  0  0  0
   -3.1768   -2.6525   -1.8193 O   0  0  0  0  0  0  0  0  0  0  0  0
   -1.4344    2.3540   -1.4774 O   0  0  0  0  0  0  0  0  0  0  0  0
    3.1576    0.8203   -0.1515 O   0  0  0  0  0  0  0  0  0  0  0  0
    4.5386   -2.7050    1.3532 O   0  0  0  0  0  0  0  0  0  0  0  0
    6.9753   -2.0648    0.6207 O   0  0  0  0  0  0  0  0  0  0  0  0
    7.5039    2.1318   -1.5394 O   0  0  0  0  0  0  0  0  0  0  0  0
   -6.5489    0.0876    0.4573 C   0  0  1  0  0  0  0  0  0  0  0  0
   -6.2739   -0.8226   -0.7398 C   0  0  1  0  0  0  0  0  0  0  0  0
   -5.4399    1.1257    0.6294 C   0  0  2  0  0  0  0  0  0  0  0  0
   -4.8462   -1.3717   -0.6880 C   0  0  1  0  0  0  0  0  0  0  0  0
   -4.0572    0.4762    0.5765 C   0  0  1  0  0  0  0  0  0  0  0  0
   -4.5098   -2.1883   -1.9317 C   0  0  0  0  0  0  0  0  0  0  0  0
   -1.7704    1.1294    0.5523 C   0  0  0  0  0  0  0  0  0  0  0  0
   -0.9494    1.5505   -0.4899 C   0  0  0  0  0  0  0  0  0  0  0  0
   -1.2676    0.3085    1.5578 C   0  0  0  0  0  0  0  0  0  0  0  0
    0.8937    0.3249    0.4783 C   0  0  0  0  0  0  0  0  0  0  0  0
    0.3854    1.1475   -0.5270 C   0  0  0  0  0  0  0  0  0  0  0  0
    0.0672   -0.0945    1.5207 C   0  0  0  0  0  0  0  0  0  0  0  0
    2.3069   -0.1017    0.4392 C   0  0  0  0  0  0  0  0  0  0  0  0
    5.0320   -0.6683    0.2612 C   0  0  0  0  0  0  0  0  0  0  0  0
    4.4936    0.5192   -0.2316 C   0  0  0  0  0  0  0  0  0  0  0  0
    2.7055   -1.2749    0.9560 C   0  0  0  0  0  0  0  0  0  0  0  0
    4.1342   -1.6448    0.8965 C   0  0  0  0  0  0  0  0  0  0  0  0
    6.4013   -0.9218    0.1526 C   0  0  0  0  0  0  0  0  0  0  0  0
    5.3238    1.4627   -0.8372 C   0  0  0  0  0  0  0  0  0  0  0  0
    6.6921    1.2133   -0.9477 C   0  0  0  0  0  0  0  0  0  0  0  0
    7.2293    0.0236   -0.4539 C   0  0  0  0  0  0  0  0  0  0  0  0
   -6.6752   -0.5048    1.3721 H   0  0  0  0  0  0  0  0  0  0  0  0
   -6.4383   -0.2624   -1.6684 H   0  0  0  0  0  0  0  0  0  0  0  0
   -5.5223    1.9051   -0.1385 H   0  0  0  0  0  0  0  0  0  0  0  0
   -4.7030   -2.0167    0.1897 H   0  0  0  0  0  0  0  0  0  0  0  0
   -3.9246   -0.1661    1.4571 H   0  0  0  0  0  0  0  0  0  0  0  0
   -5.1686   -3.0548   -2.0380 H   0  0  0  0  0  0  0  0  0  0  0  0
   -4.5762   -1.5806   -2.8403 H   0  0  0  0  0  0  0  0  0  0  0  0
   -8.0040    1.2636    1.0294 H   0  0  0  0  0  0  0  0  0  0  0  0
   -7.0511   -2.4179    0.0872 H   0  0  0  0  0  0  0  0  0  0  0  0
   -6.4258    2.2535    1.8866 H   0  0  0  0  0  0  0  0  0  0  0  0
   -2.6018   -1.8747   -1.7177 H   0  0  0  0  0  0  0  0  0  0  0  0
   -1.8885   -0.0090    2.3905 H   0  0  0  0  0  0  0  0  0  0  0  0
    1.0167    1.4745   -1.3503 H   0  0  0  0  0  0  0  0  0  0  0  0
    0.4320   -0.7133    2.3360 H   0  0  0  0  0  0  0  0  0  0  0  0
    2.0371   -1.9996    1.4059 H   0  0  0  0  0  0  0  0  0  0  0  0
   -0.7222    2.5426   -2.1123 H   0  0  0  0  0  0  0  0  0  0  0  0
    4.9077    2.3900   -1.2228 H   0  0  0  0  0  0  0  0  0  0  0  0
    8.2958   -0.1717   -0.5392 H   0  0  0  0  0  0  0  0  0  0  0  0
    6.3066   -2.6434    1.0179 H   0  0  0  0  0  0  0  0  0  0  0  0
    8.4173    1.7976   -1.5309 H   0  0  0  0  0  0  0  0  0  0  0  0
  1 15  1  0  0  0  0
  1 16  1  0  0  0  0
  2 16  1  0  0  0  0
  2 18  1  0  0  0  0
  3 12  1  0  0  0  0
  3 40  1  0  0  0  0
  4 13  1  0  0  0  0
  4 41  1  0  0  0  0
  5 14  1  0  0  0  0
  5 42  1  0  0  0  0
  6 17  1  0  0  0  0
  6 43  1  0  0  0  0
  7 19  1  0  0  0  0
  7 48  1  0  0  0  0
  8 24  1  0  0  0  0
  8 26  1  0  0  0  0
  9 28  2  0  0  0  0
 10 29  1  0  0  0  0
 10 51  1  0  0  0  0
 11 31  1  0  0  0  0
 11 52  1  0  0  0  0
 12 13  1  0  0  0  0
 12 14  1  0  0  0  0
 12 33  1  0  0  0  0
 13 15  1  0  0  0  0
 13 34  1  0  0  0  0
 14 16  1  0  0  0  0
 14 35  1  0  0  0  0
 15 17  1  0  0  0  0
 15 36  1  0  0  0  0
 16 37  1  0  0  0  0
 17 38  1  0  0  0  0
 17 39  1  0  0  0  0
 18 19  2  0  0  0  0
 18 20  1  0  0  0  0
 19 22  1  0  0  0  0
 20 23  2  0  0  0  0
 20 44  1  0  0  0  0
 21 22  2  0  0  0  0
 21 23  1  0  0  0  0
 21 24  1  0  0  0  0
 22 45  1  0  0  0  0
 23 46  1  0  0  0  0
 24 27  2  0  0  0  0
 25 26  1  0  0  0  0
 25 28  1  0  0  0  0
 25 29  2  0  0  0  0
 26 30  2  0  0  0  0
 27 28  1  0  0  0  0
 27 47  1  0  0  0  0
 29 32  1  0  0  0  0
 30 31  1  0  0  0  0
 30 49  1  0  0  0  0
 31 32  2  0  0  0  0
 32 50  1  0  0  0  0
M  END
> <PUBCHEM_COMPOUND_CID>
12304738

> <PUBCHEM_CONFORMER_RMSD>
0.8

> <PUBCHEM_CONFORMER_DIVERSEORDER>
1
106
281
66
159
208
10
287
192
206
242
53
271
136
297
218
355
276
39
321
49
99
250
210
305
35
230
291
127
239
86
268
323
171
275
273
107
33
182
111
141
183
194
50
310
9
30
71
118
299
266
48
343
243
337
326
286
244
214
155
80
237
25
325
198
180
161
27
320
334
346
209
195
303
167
115
260
62
357
347
314
350
200
2
339
152
147
292
64
123
362
319
184
236
67
340
31
98
238
52
124
132
308
38
36
197
224
22
32
345
234
5
37
128
248
146
295
130
178
186
223
17
113
205
333
121
216
211
165
199
79
20
131
232
322
212
246
73
135
140
6
318
34
344
114
356
240
145
60
14
139
11
204
125
153
59
207
29
143
185
133
349
289
259
4
196
91
176
217
222
26
290
61
187
329
285
117
231
18
8
235
203
191
342
160
154
3
338
312
12
288
116
95
15
193
225
294
359
149
94
253
7
245
104
102
284
88
213
364
40
126
336
172
87
112
354
156
233
328
219
257
84
348
227
103
164
109
256
247
304
267
89
42
332
110
13
78
282
105
21
28
361
144
258
82
226
129
174
190
255
169
264
261
138
166
241
265
220
341
179
75
63
331
51
189
19
173
58
327
215
93
55
363
157
108
74
119
163
293
16
279
360
181
122
137
311
24
358
351
120
263
335
301
188
81
352
177
296
269
353
85
316
298
283
23
158
162
101
96
317
278
65
72
100
134
97
150
302
272
142
170
168
76
309
313
252
300
70
251
307
262
270
68
277
83
77
44
249
280
306
330
69
254
175
324
46
148
315
47
229
56
151
43
54
90
41
92
57
274
45
201
221
228
202

> <PUBCHEM_MMFF94_PARTIAL_CHARGES>
45
1 -0.56
10 -0.53
11 -0.53
12 0.28
13 0.28
14 0.28
15 0.28
16 0.56
17 0.28
18 0.08
19 0.08
2 -0.36
20 -0.15
21 0.03
22 -0.15
23 -0.15
24 0.05
25 0.09
26 0.08
27 -0.14
28 0.47
29 0.08
3 -0.68
30 -0.15
31 0.08
32 -0.15
4 -0.68
40 0.4
41 0.4
42 0.4
43 0.4
44 0.15
45 0.15
46 0.15
47 0.15
48 0.45
49 0.15
5 -0.68
50 0.15
51 0.45
52 0.45
6 -0.68
7 -0.53
8 -0.16
9 -0.57

> <PUBCHEM_EFFECTIVE_ROTOR_COUNT>
5.2

> <PUBCHEM_PHARMACOPHORE_FEATURES>
19
1 1 acceptor
1 10 donor
1 11 donor
1 2 acceptor
1 3 acceptor
1 3 donor
1 4 acceptor
1 4 donor
1 5 acceptor
1 5 donor
1 6 acceptor
1 6 donor
1 7 donor
1 8 acceptor
1 9 acceptor
6 1 12 13 14 15 16 rings
6 18 19 20 21 22 23 rings
6 25 26 29 30 31 32 rings
6 8 24 25 26 27 28 rings

> <PUBCHEM_HEAVY_ATOM_COUNT>
32

> <PUBCHEM_ATOM_DEF_STEREO_COUNT>
4

> <PUBCHEM_ATOM_UDEF_STEREO_COUNT>
1

> <PUBCHEM_BOND_DEF_STEREO_COUNT>
0

> <PUBCHEM_BOND_UDEF_STEREO_COUNT>
0

> <PUBCHEM_ISOTOPIC_ATOM_COUNT>
0

> <PUBCHEM_COMPONENT_COUNT>
1

> <PUBCHEM_CACTVS_TAUTO_COUNT>
36

> <PUBCHEM_CONFORMER_ID>
00BBC16200000001

> <PUBCHEM_MMFF94_ENERGY>
105.1388

> <PUBCHEM_FEATURE_SELFOVERLAP>
96.521

> <PUBCHEM_SHAPE_FINGERPRINT>
10 15 15554438601008444634
10299344 5 18413108355411786659
10595046 47 18335985285740892192
11315181 36 18272937129126309601
11524674 6 16200429178707422231
12144603 126 18410582785962044565
12236239 1 18411984649985448928
13533116 47 18333731287125153464
1361 2 18260268542907352986
13911987 19 16732696156433451945
13914758 101 11458420228577487140
14251764 18 18342457054099765695
14347424 109 10087640386943202022
14840074 17 18335419062964291199
14856354 85 17847065493378401309
15119646 104 18334576824225234202
15183329 4 18260261958311135451
15198563 99 16732976467020664109
15276724 80 18187361004531739077
15301273 46 15410898448528374505
15352257 5 17060345110740956198
15419008 47 15339119009325608651
15444296 121 17489596662528541857
15799311 1 18060429001275747910
20157964 124 17967536775136839704
21150785 3 18408042930922522408
21781051 124 16988851588017349798
21781055 127 16844751780541140585
220451 1 18342459222704822560
23035841 295 18202563977710436065
23081809 10 18410857642103631824
23516275 137 18127717957455218947
23522609 53 18268736963953006928
23559900 14 17822860895686035968
23569914 152 16379684551922410647
24771750 20 16374699709619857284
3004659 81 17989204875648039393
3009799 131 16008749112770687581
335352 9 18114190718977655110
397830 11 16343121649670284379
4015057 19 17967539012061128632
4325135 7 18410576175969920068
504579 68 18261402143985898238
5265222 85 17845934146909487583
54039377 194 18338521962873639955
58902169 19 18410296934603297556
5969126 39 17967529039331710061
6691757 9 17704079478775872985
9831232 110 17985273980562738478
999808 66 18261399992360685979

> <PUBCHEM_SHAPE_MULTIPOLES>
593.98
22.97
2.37
1.49
2.4
0.84
0.11
2.58
3.97
0.07
0.6
-0.68
0.21
-4.41

> <PUBCHEM_SHAPE_SELFOVERLAP>
1305.234

> <PUBCHEM_SHAPE_VOLUME>
316.9

> <PUBCHEM_COORDINATE_TYPE>
2
5
10

$$$$
