5319116
  -OEChem-02172602243D

 52 55  0     1  0  0  0  0  0999 V2000
   -3.9126   -0.2934   -0.6149 O   0  0  0  0  0  0  0  0  0  0  0  0
   -3.0809    1.5170    0.5995 O   0  0  0  0  0  0  0  0  0  0  0  0
   -7.7923    0.7544    0.2320 O   0  0  0  0  0  0  0  0  0  0  0  0
   -7.1984   -1.9071   -0.7272 O   0  0  0  0  0  0  0  0  0  0  0  0
   -5.5831    1.7677    1.8973 O   0  0  0  0  0  0  0  0  0  0  0  0
   -3.1790   -2.6523   -1.8205 O   0  0  0  0  0  0  0  0  0  0  0  0
   -1.4340    2.3534   -1.4783 O   0  0  0  0  0  0  0  0  0  0  0  0
    3.1578    0.8199   -0.1519 O   0  0  0  0  0  0  0  0  0  0  0  0
    4.5394   -2.7051    1.3529 O   0  0  0  0  0  0  0  0  0  0  0  0
    6.9758   -2.0653    0.6192 O   0  0  0  0  0  0  0  0  0  0  0  0
    7.5049    2.1333   -1.5367 O   0  0  0  0  0  0  0  0  0  0  0  0
   -6.5490    0.0883    0.4585 C   0  0  1  0  0  0  0  0  0  0  0  0
   -6.2750   -0.8216   -0.7390 C   0  0  1  0  0  0  0  0  0  0  0  0
   -5.4397    1.1261    0.6304 C   0  0  2  0  0  0  0  0  0  0  0  0
   -4.8474   -1.3712   -0.6880 C   0  0  1  0  0  0  0  0  0  0  0  0
   -4.0571    0.4761    0.5766 C   0  0  1  0  0  0  0  0  0  0  0  0
   -4.5118   -2.1876   -1.9321 C   0  0  0  0  0  0  0  0  0  0  0  0
   -1.7702    1.1284    0.5514 C   0  0  0  0  0  0  0  0  0  0  0  0
   -0.9492    1.5498   -0.4907 C   0  0  0  0  0  0  0  0  0  0  0  0
   -1.2674    0.3071    1.5566 C   0  0  0  0  0  0  0  0  0  0  0  0
    0.8939    0.3238    0.4772 C   0  0  0  0  0  0  0  0  0  0  0  0
    0.3856    1.1468   -0.5278 C   0  0  0  0  0  0  0  0  0  0  0  0
    0.0674   -0.0961    1.5193 C   0  0  0  0  0  0  0  0  0  0  0  0
    2.3072   -0.1025    0.4385 C   0  0  0  0  0  0  0  0  0  0  0  0
    5.0325   -0.6682    0.2613 C   0  0  0  0  0  0  0  0  0  0  0  0
    4.4939    0.5191   -0.2316 C   0  0  0  0  0  0  0  0  0  0  0  0
    2.7060   -1.2756    0.9553 C   0  0  0  0  0  0  0  0  0  0  0  0
    4.1347   -1.6449    0.8963 C   0  0  0  0  0  0  0  0  0  0  0  0
    6.4019   -0.9213    0.1532 C   0  0  0  0  0  0  0  0  0  0  0  0
    5.3241    1.4629   -0.8367 C   0  0  0  0  0  0  0  0  0  0  0  0
    6.6923    1.2139   -0.9469 C   0  0  0  0  0  0  0  0  0  0  0  0
    7.2298    0.0243   -0.4530 C   0  0  0  0  0  0  0  0  0  0  0  0
   -6.6752   -0.5042    1.3731 H   0  0  0  0  0  0  0  0  0  0  0  0
   -6.4396   -0.2612   -1.6674 H   0  0  0  0  0  0  0  0  0  0  0  0
   -5.5222    1.9058   -0.1372 H   0  0  0  0  0  0  0  0  0  0  0  0
   -4.7041   -2.0165    0.1895 H   0  0  0  0  0  0  0  0  0  0  0  0
   -3.9244   -0.1664    1.4569 H   0  0  0  0  0  0  0  0  0  0  0  0
   -5.1711   -3.0538   -2.0383 H   0  0  0  0  0  0  0  0  0  0  0  0
   -4.5783   -1.5796   -2.8404 H   0  0  0  0  0  0  0  0  0  0  0  0
   -8.0036    1.2646    1.0318 H   0  0  0  0  0  0  0  0  0  0  0  0
   -7.0524   -2.4170    0.0879 H   0  0  0  0  0  0  0  0  0  0  0  0
   -6.4246    2.2538    1.8884 H   0  0  0  0  0  0  0  0  0  0  0  0
   -2.6036   -1.8748   -1.7188 H   0  0  0  0  0  0  0  0  0  0  0  0
   -1.8882   -0.0105    2.3893 H   0  0  0  0  0  0  0  0  0  0  0  0
    1.0170    1.4741   -1.3510 H   0  0  0  0  0  0  0  0  0  0  0  0
    0.4320   -0.7151    2.3345 H   0  0  0  0  0  0  0  0  0  0  0  0
    2.0376   -2.0006    1.4048 H   0  0  0  0  0  0  0  0  0  0  0  0
   -0.7217    2.5420   -2.1131 H   0  0  0  0  0  0  0  0  0  0  0  0
    4.9079    2.3903   -1.2221 H   0  0  0  0  0  0  0  0  0  0  0  0
    8.2963   -0.1708   -0.5381 H   0  0  0  0  0  0  0  0  0  0  0  0
    6.3069   -2.6446    1.0152 H   0  0  0  0  0  0  0  0  0  0  0  0
    8.4183    1.7990   -1.5275 H   0  0  0  0  0  0  0  0  0  0  0  0
  1 15  1  0  0  0  0
  1 16  1  0  0  0  0
  2 16  1  0  0  0  0
  2 18  1  0  0  0  0
  3 12  1  0  0  0  0
  3 40  1  0  0  0  0
  4 13  1  0  0  0  0
  4 41  1  0  0  0  0
  5 14  1  0  0  0  0
  5 42  1  0  0  0  0
  6 17  1  0  0  0  0
  6 43  1  0  0  0  0
  7 19  1  0  0  0  0
  7 48  1  0  0  0  0
  8 24  1  0  0  0  0
  8 26  1  0  0  0  0
  9 28  2  0  0  0  0
 10 29  1  0  0  0  0
 10 51  1  0  0  0  0
 11 31  1  0  0  0  0
 11 52  1  0  0  0  0
 12 13  1  0  0  0  0
 12 14  1  0  0  0  0
 12 33  1  0  0  0  0
 13 15  1  0  0  0  0
 13 34  1  0  0  0  0
 14 16  1  0  0  0  0
 14 35  1  0  0  0  0
 15 17  1  0  0  0  0
 15 36  1  0  0  0  0
 16 37  1  0  0  0  0
 17 38  1  0  0  0  0
 17 39  1  0  0  0  0
 18 19  2  0  0  0  0
 18 20  1  0  0  0  0
 19 22  1  0  0  0  0
 20 23  2  0  0  0  0
 20 44  1  0  0  0  0
 21 22  2  0  0  0  0
 21 23  1  0  0  0  0
 21 24  1  0  0  0  0
 22 45  1  0  0  0  0
 23 46  1  0  0  0  0
 24 27  2  0  0  0  0
 25 26  1  0  0  0  0
 25 28  1  0  0  0  0
 25 29  2  0  0  0  0
 26 30  2  0  0  0  0
 27 28  1  0  0  0  0
 27 47  1  0  0  0  0
 29 32  1  0  0  0  0
 30 31  1  0  0  0  0
 30 49  1  0  0  0  0
 31 32  2  0  0  0  0
 32 50  1  0  0  0  0
M  END
> <PUBCHEM_COMPOUND_CID>
5319116

> <PUBCHEM_CONFORMER_RMSD>
0.8

> <PUBCHEM_CONFORMER_DIVERSEORDER>
1
83
150
281
42
57
106
190
185
223
66
163
38
198
279
152
234
216
18
260
161
51
29
248
177
262
91
274
231
235
65
191
271
188
102
207
130
192
5
263
95
243
258
86
277
23
122
213
162
221
104
48
141
158
168
149
257
184
27
20
62
148
268
97
56
259
80
273
15
242
41
272
45
144
39
155
96
74
8
28
199
157
132
22
253
46
266
116
127
183
3
196
267
195
47
233
217
17
276
240
2
278
101
103
98
284
249
110
4
113
26
24
100
160
12
218
119
87
254
25
19
9
165
121
264
10
108
270
237
205
169
142
232
200
224
16
88
69
153
6
244
109
118
90
176
238
13
203
134
125
178
73
21
120
63
229
214
236
227
239
151
7
187
280
283
14
85
204
166
136
282
146
99
84
81
172
186
167
128
208
171
194
193
49
174
11
173
92
133
189
82
143
140
179
206
225
139
123
72
210
60
89
135
55
147
94
269
164
105
129
211
111
275
154
145
138
241
215
212
44
107
61
50
40
126
246
71
77
252
79
67
201
114
75
124
93
222
251
59
64
115
245
226
219
76
230
53
255
247
131
58
250
228
54
202
137
35
78
30
52
33
197
209
112
265
256
261
32
159
37
70
182
43
180
68
170
117
156
31
175
36
220
34
181

> <PUBCHEM_MMFF94_PARTIAL_CHARGES>
45
1 -0.56
10 -0.53
11 -0.53
12 0.28
13 0.28
14 0.28
15 0.28
16 0.56
17 0.28
18 0.08
19 0.08
2 -0.36
20 -0.15
21 0.03
22 -0.15
23 -0.15
24 0.05
25 0.09
26 0.08
27 -0.14
28 0.47
29 0.08
3 -0.68
30 -0.15
31 0.08
32 -0.15
4 -0.68
40 0.4
41 0.4
42 0.4
43 0.4
44 0.15
45 0.15
46 0.15
47 0.15
48 0.45
49 0.15
5 -0.68
50 0.15
51 0.45
52 0.45
6 -0.68
7 -0.53
8 -0.16
9 -0.57

> <PUBCHEM_EFFECTIVE_ROTOR_COUNT>
5.2

> <PUBCHEM_PHARMACOPHORE_FEATURES>
19
1 1 acceptor
1 10 donor
1 11 donor
1 2 acceptor
1 3 acceptor
1 3 donor
1 4 acceptor
1 4 donor
1 5 acceptor
1 5 donor
1 6 acceptor
1 6 donor
1 7 donor
1 8 acceptor
1 9 acceptor
6 1 12 13 14 15 16 rings
6 18 19 20 21 22 23 rings
6 25 26 29 30 31 32 rings
6 8 24 25 26 27 28 rings

> <PUBCHEM_HEAVY_ATOM_COUNT>
32

> <PUBCHEM_ATOM_DEF_STEREO_COUNT>
5

> <PUBCHEM_ATOM_UDEF_STEREO_COUNT>
0

> <PUBCHEM_BOND_DEF_STEREO_COUNT>
0

> <PUBCHEM_BOND_UDEF_STEREO_COUNT>
0

> <PUBCHEM_ISOTOPIC_ATOM_COUNT>
0

> <PUBCHEM_COMPONENT_COUNT>
1

> <PUBCHEM_CACTVS_TAUTO_COUNT>
36

> <PUBCHEM_CONFORMER_ID>
005129CC00000001

> <PUBCHEM_MMFF94_ENERGY>
105.1445

> <PUBCHEM_FEATURE_SELFOVERLAP>
96.521

> <PUBCHEM_SHAPE_FINGERPRINT>
10 15 15554438601008451130
10299344 5 18413108355411786659
10595046 47 18335985285740892192
11315181 36 18272937129126309601
11524674 6 16200429178707428727
12144603 126 18410582785967325805
12236239 1 18411984649985448928
13533116 47 18333731287125153464
1361 2 18260268542907352986
13911987 19 16732696156438746161
13914758 101 11386362634523734948
14251764 18 18342457054099765695
14347424 109 10087640386943195518
14840074 17 18335419062964291199
14856354 85 17847065493378401309
15119646 104 18334576824225234202
15183329 4 18260261958316416699
15198563 99 16733257941986825261
15276724 80 18187361004531739077
15301273 46 15339122329472431977
15352257 5 17060346210252590470
15419008 47 15339119009325608651
15444296 121 17489596662528541857
15799311 1 18060429001275747910
20157964 124 17967536775136839696
21150785 3 18408042930922522408
21781051 124 16988851588017349798
21781055 127 16844751780541140569
220451 1 18342459222704822544
23035841 295 18202563977710429577
23081809 10 18410857642108906576
23516275 137 18127717957449944195
23522609 53 18268736963953006928
23559900 14 17822860895686035968
23569914 152 16379404180757563303
24771750 20 16374699709619857284
3004659 81 17989204875648039401
3009799 131 16008749112770681077
335352 9 18114189619471289102
397830 11 16342840174677749475
4015057 19 17967539012061128632
4325135 7 18410576175964638812
504579 68 18261402143985898238
5265222 85 17845934146920050103
54039377 194 18338521962873639955
58902169 19 18410296934598016332
5969126 39 17967529039331710061
6691757 9 17704079478775866481
9831232 110 17985273980557463726
999808 66 18261399992360685979

> <PUBCHEM_SHAPE_MULTIPOLES>
593.98
22.97
2.37
1.49
2.4
0.84
0.11
2.57
3.96
0.07
0.6
-0.69
0.21
-4.41

> <PUBCHEM_SHAPE_SELFOVERLAP>
1305.222

> <PUBCHEM_SHAPE_VOLUME>
317

> <PUBCHEM_COORDINATE_TYPE>
2
5
10

$$$$
