10926868
  -OEChem-02172602453D

 58 59  0     1  0  0  0  0  0999 V2000
    0.6238    0.6111   -0.2726 Si  0  0  2  0  0  0  0  0  0  0  0  0
    1.7331    2.4342    0.7249 Si  0  0  0  0  0  0  0  0  0  0  0  0
   -2.4850   -1.6038   -0.8008 Si  0  0  0  0  0  0  0  0  0  0  0  0
    0.5991    0.9114   -1.9134 O   0  0  0  0  0  0  0  0  0  0  0  0
   -1.6200   -0.8729    0.7695 C   0  0  1  0  0  0  0  0  0  0  0  0
   -1.0181    0.5111    0.4967 C   0  0  0  0  0  0  0  0  0  0  0  0
   -2.5748   -0.8502    2.0027 C   0  0  0  0  0  0  0  0  0  0  0  0
    1.7102   -0.8857    0.0428 C   0  0  0  0  0  0  0  0  0  0  0  0
   -1.6621    1.6281    0.8912 C   0  0  0  0  0  0  0  0  0  0  0  0
    3.3932    2.5833   -0.0977 C   0  0  0  0  0  0  0  0  0  0  0  0
    0.6929    3.9473    0.4411 C   0  0  0  0  0  0  0  0  0  0  0  0
    1.9072    2.0590    2.5366 C   0  0  0  0  0  0  0  0  0  0  0  0
   -1.2035   -1.7473   -2.1357 C   0  0  0  0  0  0  0  0  0  0  0  0
   -3.8395   -0.4352   -1.2945 C   0  0  0  0  0  0  0  0  0  0  0  0
   -3.1678   -3.2683   -0.3452 C   0  0  0  0  0  0  0  0  0  0  0  0
   -3.3641    0.4249    2.1268 C   0  0  0  0  0  0  0  0  0  0  0  0
   -2.9322    1.5677    1.5768 C   0  0  0  0  0  0  0  0  0  0  0  0
    2.0415   -1.2285    1.3471 C   0  0  0  0  0  0  0  0  0  0  0  0
    2.1724   -1.6353   -1.0309 C   0  0  0  0  0  0  0  0  0  0  0  0
   -0.1554    1.9994   -2.4283 C   0  0  0  0  0  0  0  0  0  0  0  0
    2.8497   -2.3408    1.5819 C   0  0  0  0  0  0  0  0  0  0  0  0
    2.9805   -2.7477   -0.7960 C   0  0  0  0  0  0  0  0  0  0  0  0
   -0.0003    2.0385   -3.9336 C   0  0  0  0  0  0  0  0  0  0  0  0
    3.3191   -3.1004    0.5105 C   0  0  0  0  0  0  0  0  0  0  0  0
   -0.8361   -1.5982    1.0181 H   0  0  0  0  0  0  0  0  0  0  0  0
   -1.9751   -0.9499    2.9178 H   0  0  0  0  0  0  0  0  0  0  0  0
   -3.2648   -1.7001    2.0004 H   0  0  0  0  0  0  0  0  0  0  0  0
   -1.3338    2.6324    0.6983 H   0  0  0  0  0  0  0  0  0  0  0  0
    3.9897    1.6763    0.0416 H   0  0  0  0  0  0  0  0  0  0  0  0
    3.2886    2.7566   -1.1733 H   0  0  0  0  0  0  0  0  0  0  0  0
    3.9592    3.4211    0.3213 H   0  0  0  0  0  0  0  0  0  0  0  0
    1.3511    4.8064    0.2677 H   0  0  0  0  0  0  0  0  0  0  0  0
   -0.0039    3.9227   -0.3928 H   0  0  0  0  0  0  0  0  0  0  0  0
    0.1182    4.1879    1.3423 H   0  0  0  0  0  0  0  0  0  0  0  0
    0.9725    1.6909    2.9700 H   0  0  0  0  0  0  0  0  0  0  0  0
    2.6918    1.3207    2.7237 H   0  0  0  0  0  0  0  0  0  0  0  0
    2.1863    2.9655    3.0837 H   0  0  0  0  0  0  0  0  0  0  0  0
   -0.3076   -2.2533   -1.7803 H   0  0  0  0  0  0  0  0  0  0  0  0
   -1.6042   -2.3709   -2.9434 H   0  0  0  0  0  0  0  0  0  0  0  0
   -0.9569   -0.7944   -2.5978 H   0  0  0  0  0  0  0  0  0  0  0  0
   -4.5983   -0.3452   -0.5120 H   0  0  0  0  0  0  0  0  0  0  0  0
   -3.4520    0.5645   -1.5114 H   0  0  0  0  0  0  0  0  0  0  0  0
   -4.3431   -0.7937   -2.1980 H   0  0  0  0  0  0  0  0  0  0  0  0
   -3.5422   -3.7889   -1.2321 H   0  0  0  0  0  0  0  0  0  0  0  0
   -2.3975   -3.8981    0.1104 H   0  0  0  0  0  0  0  0  0  0  0  0
   -3.9988   -3.1859    0.3612 H   0  0  0  0  0  0  0  0  0  0  0  0
   -4.2959    0.4068    2.6826 H   0  0  0  0  0  0  0  0  0  0  0  0
   -3.5038    2.4836    1.6771 H   0  0  0  0  0  0  0  0  0  0  0  0
    1.6611   -0.6854    2.2060 H   0  0  0  0  0  0  0  0  0  0  0  0
    1.9368   -1.3809   -2.0608 H   0  0  0  0  0  0  0  0  0  0  0  0
   -1.2160    1.9087   -2.1697 H   0  0  0  0  0  0  0  0  0  0  0  0
    0.2416    2.9461   -2.0682 H   0  0  0  0  0  0  0  0  0  0  0  0
    3.1058   -2.6211    2.5995 H   0  0  0  0  0  0  0  0  0  0  0  0
    3.3478   -3.3383   -1.6301 H   0  0  0  0  0  0  0  0  0  0  0  0
   -0.5543    2.8779   -4.3632 H   0  0  0  0  0  0  0  0  0  0  0  0
    1.0548    2.1316   -4.2122 H   0  0  0  0  0  0  0  0  0  0  0  0
   -0.3661    1.1090   -4.3824 H   0  0  0  0  0  0  0  0  0  0  0  0
    3.9469   -3.9676    0.6935 H   0  0  0  0  0  0  0  0  0  0  0  0
  1  2  1  0  0  0  0
  1  4  1  0  0  0  0
  1  6  1  0  0  0  0
  1  8  1  0  0  0  0
  2 10  1  0  0  0  0
  2 11  1  0  0  0  0
  2 12  1  0  0  0  0
  3  5  1  0  0  0  0
  3 13  1  0  0  0  0
  3 14  1  0  0  0  0
  3 15  1  0  0  0  0
  4 20  1  0  0  0  0
  5  6  1  0  0  0  0
  5  7  1  0  0  0  0
  5 25  1  0  0  0  0
  6  9  2  0  0  0  0
  7 16  1  0  0  0  0
  7 26  1  0  0  0  0
  7 27  1  0  0  0  0
  8 18  2  0  0  0  0
  8 19  1  0  0  0  0
  9 17  1  0  0  0  0
  9 28  1  0  0  0  0
 10 29  1  0  0  0  0
 10 30  1  0  0  0  0
 10 31  1  0  0  0  0
 11 32  1  0  0  0  0
 11 33  1  0  0  0  0
 11 34  1  0  0  0  0
 12 35  1  0  0  0  0
 12 36  1  0  0  0  0
 12 37  1  0  0  0  0
 13 38  1  0  0  0  0
 13 39  1  0  0  0  0
 13 40  1  0  0  0  0
 14 41  1  0  0  0  0
 14 42  1  0  0  0  0
 14 43  1  0  0  0  0
 15 44  1  0  0  0  0
 15 45  1  0  0  0  0
 15 46  1  0  0  0  0
 16 17  2  0  0  0  0
 16 47  1  0  0  0  0
 17 48  1  0  0  0  0
 18 21  1  0  0  0  0
 18 49  1  0  0  0  0
 19 22  2  0  0  0  0
 19 50  1  0  0  0  0
 20 23  1  0  0  0  0
 20 51  1  0  0  0  0
 20 52  1  0  0  0  0
 21 24  2  0  0  0  0
 21 53  1  0  0  0  0
 22 24  1  0  0  0  0
 22 54  1  0  0  0  0
 23 55  1  0  0  0  0
 23 56  1  0  0  0  0
 23 57  1  0  0  0  0
 24 58  1  0  0  0  0
M  END
> <PUBCHEM_COMPOUND_CID>
10926868

> <PUBCHEM_CONFORMER_RMSD>
0.8

> <PUBCHEM_CONFORMER_DIVERSEORDER>
13
49
30
19
15
35
44
6
28
47
25
26
5
17
22
41
23
16
36
32
12
24
40
43
11
34
2
38
31
42
45
21
3
10
29
48
7
9
20
46
37
33
14
39
27
50
4
18
1
8

> <PUBCHEM_MMFF94_PARTIAL_CHARGES>
31
1 0.75
10 -0.08
11 -0.08
12 -0.08
13 -0.08
14 -0.08
15 -0.08
16 -0.29
17 -0.15
18 -0.15
19 -0.15
2 0.24
20 0.28
21 -0.15
22 -0.15
24 -0.15
28 0.15
3 0.32
4 -0.58
47 0.15
48 0.15
49 0.15
5 0.06
50 0.15
53 0.15
54 0.15
58 0.15
6 -0.37
7 0.14
8 -0.22
9 -0.15

> <PUBCHEM_EFFECTIVE_ROTOR_COUNT>
6.4

> <PUBCHEM_PHARMACOPHORE_FEATURES>
2
6 5 6 7 9 16 17 rings
6 8 18 19 21 22 24 rings

> <PUBCHEM_HEAVY_ATOM_COUNT>
24

> <PUBCHEM_ATOM_DEF_STEREO_COUNT>
0

> <PUBCHEM_ATOM_UDEF_STEREO_COUNT>
2

> <PUBCHEM_BOND_DEF_STEREO_COUNT>
0

> <PUBCHEM_BOND_UDEF_STEREO_COUNT>
0

> <PUBCHEM_ISOTOPIC_ATOM_COUNT>
0

> <PUBCHEM_COMPONENT_COUNT>
1

> <PUBCHEM_CACTVS_TAUTO_COUNT>
1

> <PUBCHEM_CONFORMER_ID>
00A6BB140000000D

> <PUBCHEM_MMFF94_ENERGY>
43.4234

> <PUBCHEM_FEATURE_SELFOVERLAP>
10.149

> <PUBCHEM_SHAPE_FINGERPRINT>
11578080 2 18261382309204959228
12035759 4 17916018160477640805
12156800 1 12675202678400847257
12160290 23 17466503404576596278
12553582 1 18268157456905550586
12633257 1 17272563920097721666
12714826 92 17754179682776330338
13149001 5 17757798197076349788
133893 2 18188775070853026226
13583140 156 18193579945931257601
14223421 5 18200592626244532579
14856354 85 17844532098529940070
14863182 85 17834397100132727827
16114785 44 17123925268486788200
16945 1 18340496680448853928
17980427 23 16844999118363505841
20600515 1 17540293888963641077
20905425 154 17630905973559346113
21421861 104 18198632218751172147
229495 10 18042693801821454940
23419403 2 18116991075054371140
23559900 14 18269817852364255595
23598288 3 17758969116951694898
25222932 49 17125634330643073623
394222 165 17614245151183188848
404807 78 16314385037396317847
5845 1 12571889696732328102
7097593 13 18272938206271362610
81228 2 17334797287699547408

> <PUBCHEM_SHAPE_MULTIPOLES>
542.68
5.79
4.44
2.88
2.85
1.78
-2.11
1.34
1.47
-3.69
0.38
0.5
-1.61
-1.05

> <PUBCHEM_SHAPE_SELFOVERLAP>
1053.903

> <PUBCHEM_SHAPE_VOLUME>
329.4

> <PUBCHEM_COORDINATE_TYPE>
2
5
10

$$$$
