5318765
  -OEChem-02172602403D

 80 84  0     1  0  0  0  0  0999 V2000
   -2.9855   -1.2453    0.0341 O   0  0  0  0  0  0  0  0  0  0  0  0
    0.6278   -1.7864    0.0581 O   0  0  0  0  0  0  0  0  0  0  0  0
   -3.9891   -0.9321   -2.0933 O   0  0  0  0  0  0  0  0  0  0  0  0
   -2.7107   -4.1780    0.1036 O   0  0  0  0  0  0  0  0  0  0  0  0
   -0.5883    0.0215   -0.7764 O   0  0  0  0  0  0  0  0  0  0  0  0
   -0.3755   -4.9398    1.6276 O   0  0  0  0  0  0  0  0  0  0  0  0
   -6.3545   -2.1371   -0.9920 O   0  0  0  0  0  0  0  0  0  0  0  0
   -7.0685    0.1138    0.4804 O   0  0  0  0  0  0  0  0  0  0  0  0
   -5.7813    2.1262   -1.0815 O   0  0  0  0  0  0  0  0  0  0  0  0
    3.0392   -2.4810    1.1802 O   0  0  0  0  0  0  0  0  0  0  0  0
    1.3761    2.8500    0.5382 O   0  0  0  0  0  0  0  0  0  0  0  0
    1.8939   -0.3054   -1.9876 O   0  0  0  0  0  0  0  0  0  0  0  0
    4.5718   -3.4898   -0.2156 O   0  0  0  0  0  0  0  0  0  0  0  0
    4.3641    0.4367   -2.4176 O   0  0  0  0  0  0  0  0  0  0  0  0
    5.8315    4.3384   -0.1442 O   0  0  0  0  0  0  0  0  0  0  0  0
    7.2347   -0.3858    0.9049 O   0  0  0  0  0  0  0  0  0  0  0  0
    7.0130   -2.2609   -0.3620 O   0  0  0  0  0  0  0  0  0  0  0  0
   -4.3820    3.1739    3.0650 O   0  0  0  0  0  0  0  0  0  0  0  0
   -1.7795   -1.9711   -0.2031 C   0  0  2  0  0  0  0  0  0  0  0  0
   -1.7771   -3.2425    0.6456 C   0  0  2  0  0  0  0  0  0  0  0  0
   -0.3974   -3.9011    0.6520 C   0  0  1  0  0  0  0  0  0  0  0  0
   -4.0204   -1.6503   -0.8552 C   0  0  2  0  0  0  0  0  0  0  0  0
    0.6918   -2.8768    0.9790 C   0  0  1  0  0  0  0  0  0  0  0  0
   -0.5989   -1.0657    0.1483 C   0  0  1  0  0  0  0  0  0  0  0  0
   -5.3783   -1.4900   -0.1741 C   0  0  1  0  0  0  0  0  0  0  0  0
   -5.7347   -0.0119   -0.0074 C   0  0  1  0  0  0  0  0  0  0  0  0
   -5.6123    0.7340   -1.3366 C   0  0  2  0  0  0  0  0  0  0  0  0
   -4.2360    0.4717   -1.9638 C   0  0  2  0  0  0  0  0  0  0  0  0
    2.0873   -3.4842    0.8764 C   0  0  0  0  0  0  0  0  0  0  0  0
   -4.1197    1.0755   -3.3606 C   0  0  0  0  0  0  0  0  0  0  0  0
    0.4565    0.8858   -0.5306 C   0  0  0  0  0  0  0  0  0  0  0  0
    0.3563    1.9436    0.2948 C   0  0  0  0  0  0  0  0  0  0  0  0
    1.7428    0.6409   -1.2266 C   0  0  0  0  0  0  0  0  0  0  0  0
    4.2601   -2.5983    0.5612 C   0  0  0  0  0  0  0  0  0  0  0  0
    2.8254    1.5986   -0.9536 C   0  0  0  0  0  0  0  0  0  0  0  0
   -0.8848    2.2663    1.0211 C   0  0  0  0  0  0  0  0  0  0  0  0
    2.5837    2.6578   -0.0817 C   0  0  0  0  0  0  0  0  0  0  0  0
    5.1519   -1.4623    0.9992 C   0  0  0  0  0  0  0  0  0  0  0  0
    4.0766    1.4535   -1.5579 C   0  0  0  0  0  0  0  0  0  0  0  0
    3.5935    3.5809    0.1917 C   0  0  0  0  0  0  0  0  0  0  0  0
   -1.1105    1.7319    2.2899 C   0  0  0  0  0  0  0  0  0  0  0  0
   -1.8352    3.1060    0.4396 C   0  0  0  0  0  0  0  0  0  0  0  0
    5.0852    2.3776   -1.2826 C   0  0  0  0  0  0  0  0  0  0  0  0
    4.8443    3.4394   -0.4095 C   0  0  0  0  0  0  0  0  0  0  0  0
    6.5441   -1.4530    0.4246 C   0  0  0  0  0  0  0  0  0  0  0  0
   -2.2857    2.0371    2.9767 C   0  0  0  0  0  0  0  0  0  0  0  0
   -3.0102    3.4111    1.1264 C   0  0  0  0  0  0  0  0  0  0  0  0
   -3.2356    2.8767    2.3949 C   0  0  0  0  0  0  0  0  0  0  0  0
   -1.7061   -2.2312   -1.2692 H   0  0  0  0  0  0  0  0  0  0  0  0
   -2.1154   -3.0212    1.6655 H   0  0  0  0  0  0  0  0  0  0  0  0
   -0.2113   -4.3645   -0.3247 H   0  0  0  0  0  0  0  0  0  0  0  0
   -3.9229   -2.7001   -1.1422 H   0  0  0  0  0  0  0  0  0  0  0  0
    0.5686   -2.4810    1.9964 H   0  0  0  0  0  0  0  0  0  0  0  0
   -0.7246   -0.6832    1.1666 H   0  0  0  0  0  0  0  0  0  0  0  0
   -5.3943   -1.9851    0.8028 H   0  0  0  0  0  0  0  0  0  0  0  0
   -5.0814    0.4526    0.7408 H   0  0  0  0  0  0  0  0  0  0  0  0
   -6.4197    0.4242   -2.0113 H   0  0  0  0  0  0  0  0  0  0  0  0
   -3.4465    0.9187   -1.3467 H   0  0  0  0  0  0  0  0  0  0  0  0
    2.2340   -3.8691   -0.1402 H   0  0  0  0  0  0  0  0  0  0  0  0
    2.2094   -4.3065    1.5890 H   0  0  0  0  0  0  0  0  0  0  0  0
   -3.1511    0.8201   -3.8046 H   0  0  0  0  0  0  0  0  0  0  0  0
   -4.8875    0.6684   -4.0277 H   0  0  0  0  0  0  0  0  0  0  0  0
   -4.2105    2.1651   -3.3423 H   0  0  0  0  0  0  0  0  0  0  0  0
   -2.6789   -4.9758    0.6588 H   0  0  0  0  0  0  0  0  0  0  0  0
   -0.5344   -4.5371    2.4983 H   0  0  0  0  0  0  0  0  0  0  0  0
   -6.2522   -1.8163   -1.9039 H   0  0  0  0  0  0  0  0  0  0  0  0
   -7.6584   -0.3344   -0.1497 H   0  0  0  0  0  0  0  0  0  0  0  0
   -5.8603    2.5779   -1.9382 H   0  0  0  0  0  0  0  0  0  0  0  0
    4.6635   -0.5262    0.7118 H   0  0  0  0  0  0  0  0  0  0  0  0
    5.2459   -1.5197    2.0894 H   0  0  0  0  0  0  0  0  0  0  0  0
    3.4013    4.4065    0.8725 H   0  0  0  0  0  0  0  0  0  0  0  0
   -0.3758    1.0843    2.7622 H   0  0  0  0  0  0  0  0  0  0  0  0
   -1.6746    3.5287   -0.5492 H   0  0  0  0  0  0  0  0  0  0  0  0
    6.0653    2.2791   -1.7435 H   0  0  0  0  0  0  0  0  0  0  0  0
   -2.4546    1.6190    3.9652 H   0  0  0  0  0  0  0  0  0  0  0  0
   -3.7432    4.0649    0.6614 H   0  0  0  0  0  0  0  0  0  0  0  0
    5.2859    0.5160   -2.7168 H   0  0  0  0  0  0  0  0  0  0  0  0
    5.4926    5.0044    0.4784 H   0  0  0  0  0  0  0  0  0  0  0  0
    8.1463   -0.3483    0.5446 H   0  0  0  0  0  0  0  0  0  0  0  0
   -4.9251    3.7636    2.5142 H   0  0  0  0  0  0  0  0  0  0  0  0
  1 19  1  0  0  0  0
  1 22  1  0  0  0  0
  2 23  1  0  0  0  0
  2 24  1  0  0  0  0
  3 22  1  0  0  0  0
  3 28  1  0  0  0  0
  4 20  1  0  0  0  0
  4 64  1  0  0  0  0
  5 24  1  0  0  0  0
  5 31  1  0  0  0  0
  6 21  1  0  0  0  0
  6 65  1  0  0  0  0
  7 25  1  0  0  0  0
  7 66  1  0  0  0  0
  8 26  1  0  0  0  0
  8 67  1  0  0  0  0
  9 27  1  0  0  0  0
  9 68  1  0  0  0  0
 10 29  1  0  0  0  0
 10 34  1  0  0  0  0
 11 32  1  0  0  0  0
 11 37  1  0  0  0  0
 12 33  2  0  0  0  0
 13 34  2  0  0  0  0
 14 39  1  0  0  0  0
 14 77  1  0  0  0  0
 15 44  1  0  0  0  0
 15 78  1  0  0  0  0
 16 45  1  0  0  0  0
 16 79  1  0  0  0  0
 17 45  2  0  0  0  0
 18 48  1  0  0  0  0
 18 80  1  0  0  0  0
 19 20  1  0  0  0  0
 19 24  1  0  0  0  0
 19 49  1  0  0  0  0
 20 21  1  0  0  0  0
 20 50  1  0  0  0  0
 21 23  1  0  0  0  0
 21 51  1  0  0  0  0
 22 25  1  0  0  0  0
 22 52  1  0  0  0  0
 23 29  1  0  0  0  0
 23 53  1  0  0  0  0
 24 54  1  0  0  0  0
 25 26  1  0  0  0  0
 25 55  1  0  0  0  0
 26 27  1  0  0  0  0
 26 56  1  0  0  0  0
 27 28  1  0  0  0  0
 27 57  1  0  0  0  0
 28 30  1  0  0  0  0
 28 58  1  0  0  0  0
 29 59  1  0  0  0  0
 29 60  1  0  0  0  0
 30 61  1  0  0  0  0
 30 62  1  0  0  0  0
 30 63  1  0  0  0  0
 31 32  2  0  0  0  0
 31 33  1  0  0  0  0
 32 36  1  0  0  0  0
 33 35  1  0  0  0  0
 34 38  1  0  0  0  0
 35 37  1  0  0  0  0
 35 39  2  0  0  0  0
 36 41  2  0  0  0  0
 36 42  1  0  0  0  0
 37 40  2  0  0  0  0
 38 45  1  0  0  0  0
 38 69  1  0  0  0  0
 38 70  1  0  0  0  0
 39 43  1  0  0  0  0
 40 44  1  0  0  0  0
 40 71  1  0  0  0  0
 41 46  1  0  0  0  0
 41 72  1  0  0  0  0
 42 47  2  0  0  0  0
 42 73  1  0  0  0  0
 43 44  2  0  0  0  0
 43 74  1  0  0  0  0
 46 48  2  0  0  0  0
 46 75  1  0  0  0  0
 47 48  1  0  0  0  0
 47 76  1  0  0  0  0
M  END
> <PUBCHEM_COMPOUND_CID>
5318765

> <PUBCHEM_CONFORMER_RMSD>
1.2

> <PUBCHEM_CONFORMER_DIVERSEORDER>
1
69
66
33
23
77
11
78
63
64
39
75
71
58
24
21
51
76
32
22
85
59
8
30
72
68
43
84
34
41
40
38
81
79
48
47
19
36
60
42
80
82
73
12
65
54
15
29
53
49
5
7
83
31
52
67
61
70
14
35
20
56
37
25
6
18
57
74
3
46
50
62
44
55
45
28
16
13
10
9
17
4
27
2
26

> <PUBCHEM_MMFF94_PARTIAL_CHARGES>
62
1 -0.56
10 -0.43
11 -0.16
12 -0.57
13 -0.57
14 -0.53
15 -0.53
16 -0.65
17 -0.57
18 -0.53
19 0.28
2 -0.56
20 0.28
21 0.28
22 0.56
23 0.28
24 0.56
25 0.28
26 0.28
27 0.28
28 0.28
29 0.28
3 -0.56
31 0.09
32 0.05
33 0.47
34 0.66
35 0.09
36 0.03
37 0.08
38 0.12
39 0.08
4 -0.68
40 -0.15
41 -0.15
42 -0.15
43 -0.15
44 0.08
45 0.66
46 -0.15
47 -0.15
48 0.08
5 -0.36
6 -0.68
64 0.4
65 0.4
66 0.4
67 0.4
68 0.4
7 -0.68
71 0.15
72 0.15
73 0.15
74 0.15
75 0.15
76 0.15
77 0.45
78 0.45
79 0.5
8 -0.68
80 0.45
9 -0.68

> <PUBCHEM_EFFECTIVE_ROTOR_COUNT>
12.4

> <PUBCHEM_PHARMACOPHORE_FEATURES>
29
1 1 acceptor
1 11 acceptor
1 12 acceptor
1 13 acceptor
1 14 donor
1 15 donor
1 16 acceptor
1 17 acceptor
1 18 donor
1 2 acceptor
1 3 acceptor
1 38 anion
1 4 acceptor
1 4 donor
1 5 acceptor
1 6 acceptor
1 6 donor
1 7 acceptor
1 7 donor
1 8 acceptor
1 8 donor
1 9 acceptor
1 9 donor
3 16 17 45 anion
6 11 31 32 33 35 37 rings
6 2 19 20 21 23 24 rings
6 3 22 25 26 27 28 rings
6 35 37 39 40 43 44 rings
6 36 41 42 46 47 48 rings

> <PUBCHEM_HEAVY_ATOM_COUNT>
48

> <PUBCHEM_ATOM_DEF_STEREO_COUNT>
10

> <PUBCHEM_ATOM_UDEF_STEREO_COUNT>
0

> <PUBCHEM_BOND_DEF_STEREO_COUNT>
0

> <PUBCHEM_BOND_UDEF_STEREO_COUNT>
0

> <PUBCHEM_ISOTOPIC_ATOM_COUNT>
0

> <PUBCHEM_COMPONENT_COUNT>
1

> <PUBCHEM_CACTVS_TAUTO_COUNT>
57

> <PUBCHEM_CONFORMER_ID>
0051286D00000001

> <PUBCHEM_MMFF94_ENERGY>
138.6542

> <PUBCHEM_FEATURE_SELFOVERLAP>
147.681

> <PUBCHEM_SHAPE_FINGERPRINT>
10165383 225 18263360468900239469
10190206 1 18268166412192093780
10290309 65 17762052547040879896
10580122 17 17761778360302534205
1100329 8 18337965472292016872
12355185 1 17917421068648044714
12788726 201 18060427932071354577
13111901 51 18408887339000138152
140371 6 18412263900438872506
14068700 675 18341035359558260650
14279260 333 18131079211876832628
14955137 171 17831323613594219730
15274700 242 18340776961941861953
15328829 1 18128816352501442233
15351339 4 18191857040732679619
15406563 228 18259989275475247764
15775530 1 16685126094689699385
16112460 7 18410580582559081472
469060 322 17902778666032109618
5265222 85 17179131111884054124
57527295 17 17985820660784007023
57527306 92 17130171873823661187
9961470 85 18338229492400415216

> <PUBCHEM_SHAPE_MULTIPOLES>
882.17
15.33
6.22
2.31
4.78
2.21
-0.02
-0.72
3.7
3.41
-2.88
-2.63
-1.64
-3.11

> <PUBCHEM_SHAPE_SELFOVERLAP>
1910.372

> <PUBCHEM_SHAPE_VOLUME>
474.6

> <PUBCHEM_COORDINATE_TYPE>
2
5
10

$$$$
