5280638
  -OEChem-02172602463D

 18 19  0     0  0  0  0  0  0999 V2000
   -1.4374    2.5594    0.0003 O   0  0  0  0  0  0  0  0  0  0  0  0
    3.7096   -0.9875   -0.0012 O   0  0  0  0  0  0  0  0  0  0  0  0
   -0.9031   -1.4733   -0.0001 N   0  0  0  0  0  0  0  0  0  0  0  0
    1.1241    1.5250    0.0003 N   0  0  0  0  0  0  0  0  0  0  0  0
    1.3993   -1.2284    0.0003 N   0  0  0  0  0  0  0  0  0  0  0  0
   -2.3469    0.4414   -0.0008 N   0  0  0  0  0  0  0  0  0  0  0  0
   -3.2370   -1.7242    0.0010 N   0  0  0  0  0  0  0  0  0  0  0  0
    0.0535    0.7080   -0.0002 C   0  0  0  0  0  0  0  0  0  0  0  0
    0.1771   -0.6829   -0.0001 C   0  0  0  0  0  0  0  0  0  0  0  0
   -1.2371    1.2017   -0.0006 C   0  0  0  0  0  0  0  0  0  0  0  0
   -2.1092   -0.8750   -0.0004 C   0  0  0  0  0  0  0  0  0  0  0  0
    2.4713   -0.4128    0.0009 C   0  0  0  0  0  0  0  0  0  0  0  0
    2.3358    0.9483    0.0008 C   0  0  0  0  0  0  0  0  0  0  0  0
    3.1813    1.6250    0.0004 H   0  0  0  0  0  0  0  0  0  0  0  0
   -4.1633   -1.3203    0.0006 H   0  0  0  0  0  0  0  0  0  0  0  0
   -3.1047   -2.7261    0.0011 H   0  0  0  0  0  0  0  0  0  0  0  0
   -2.4027    2.6815    0.0002 H   0  0  0  0  0  0  0  0  0  0  0  0
    4.3808   -0.2833   -0.0011 H   0  0  0  0  0  0  0  0  0  0  0  0
  1 10  1  0  0  0  0
  1 17  1  0  0  0  0
  2 12  1  0  0  0  0
  2 18  1  0  0  0  0
  3  9  1  0  0  0  0
  3 11  2  0  0  0  0
  4  8  2  0  0  0  0
  4 13  1  0  0  0  0
  5  9  2  0  0  0  0
  5 12  1  0  0  0  0
  6 10  2  0  0  0  0
  6 11  1  0  0  0  0
  7 11  1  0  0  0  0
  7 15  1  0  0  0  0
  7 16  1  0  0  0  0
  8  9  1  0  0  0  0
  8 10  1  0  0  0  0
 12 13  2  0  0  0  0
 13 14  1  0  0  0  0
M  END
> <PUBCHEM_COMPOUND_CID>
5280638

> <PUBCHEM_CONFORMER_RMSD>
0.4

> <PUBCHEM_CONFORMER_DIVERSEORDER>
1

> <PUBCHEM_MMFF94_PARTIAL_CHARGES>
18
1 -0.53
10 0.39
11 0.72
12 0.39
13 0.16
14 0.15
15 0.4
16 0.4
17 0.45
18 0.45
2 -0.53
3 -0.62
4 -0.62
5 -0.62
6 -0.62
7 -0.9
8 0.31
9 0.62

> <PUBCHEM_EFFECTIVE_ROTOR_COUNT>
0

> <PUBCHEM_PHARMACOPHORE_FEATURES>
6
1 2 donor
1 4 acceptor
1 7 donor
4 3 6 7 11 cation
6 3 6 8 9 10 11 rings
6 4 5 8 9 12 13 rings

> <PUBCHEM_HEAVY_ATOM_COUNT>
13

> <PUBCHEM_ATOM_DEF_STEREO_COUNT>
0

> <PUBCHEM_ATOM_UDEF_STEREO_COUNT>
0

> <PUBCHEM_BOND_DEF_STEREO_COUNT>
0

> <PUBCHEM_BOND_UDEF_STEREO_COUNT>
0

> <PUBCHEM_ISOTOPIC_ATOM_COUNT>
0

> <PUBCHEM_COMPONENT_COUNT>
1

> <PUBCHEM_CACTVS_TAUTO_COUNT>
18

> <PUBCHEM_CONFORMER_ID>
0050937E00000001

> <PUBCHEM_MMFF94_ENERGY>
38.7337

> <PUBCHEM_FEATURE_SELFOVERLAP>
30.489

> <PUBCHEM_SHAPE_FINGERPRINT>
10967382 1 18050286165385893600
11206711 2 18408886213349142948
12032990 46 18337114582819263691
12423570 1 12168792602029127643
13380535 76 18124590886561171149
14325111 11 18410574002547767044
161256 15 18268989954584530696
16945 1 18338517434795896357
193761 8 14735637350700157733
19973954 147 18410856555545483740
20871998 184 18202001014566346455
21040471 1 18122626059081972640
21501502 16 18410581690560416844
23463225 33 18337956791255743807
23552423 10 18260550056105921012
23559900 14 17983014445876994910
241688 4 18409448115520610385
2748010 2 18339073908123355685
5084963 1 18272933825515399186
528886 8 18194395585347337192
7364860 26 18198062680439211448
8809292 202 18260834820943697843

> <PUBCHEM_SHAPE_MULTIPOLES>
230.89
4.49
2.04
0.57
1.19
0.76
0
-1.77
0
-0.86
0
0.01
0.01
0

> <PUBCHEM_SHAPE_SELFOVERLAP>
510.692

> <PUBCHEM_SHAPE_VOLUME>
121.7

> <PUBCHEM_COORDINATE_TYPE>
2
5
10

$$$$
