157009729
  -OEChem-02172602373D

 71 75  0     1  0  0  0  0  0999 V2000
    1.0458    1.9458   -0.2890 O   0  0  0  0  0  0  0  0  0  0  0  0
    5.4181   -0.6937    0.3853 O   0  0  0  0  0  0  0  0  0  0  0  0
    3.5301   -0.4435   -0.9622 O   0  0  0  0  0  0  0  0  0  0  0  0
    3.6559    1.4908   -2.8108 O   0  0  0  0  0  0  0  0  0  0  0  0
    3.0308    4.3235   -2.9874 O   0  0  0  0  0  0  0  0  0  0  0  0
   -0.6744    3.5058   -0.0640 O   0  0  0  0  0  0  0  0  0  0  0  0
    0.1652    4.7502   -2.4576 O   0  0  0  0  0  0  0  0  0  0  0  0
    6.3940   -4.2567   -1.4111 O   0  0  0  0  0  0  0  0  0  0  0  0
    3.6572   -3.1887   -1.6188 O   0  0  0  0  0  0  0  0  0  0  0  0
    7.5249   -3.5765    1.1783 O   0  0  0  0  0  0  0  0  0  0  0  0
    2.5251    0.3191    0.9729 O   0  0  0  0  0  0  0  0  0  0  0  0
    8.1093   -1.3285    2.5489 O   0  0  0  0  0  0  0  0  0  0  0  0
    7.3922    0.5320    1.4445 O   0  0  0  0  0  0  0  0  0  0  0  0
   -4.1775    0.2933    0.0129 O   0  0  0  0  0  0  0  0  0  0  0  0
   -2.1941    1.8839    4.1399 O   0  0  0  0  0  0  0  0  0  0  0  0
   -4.1270    0.1105    4.0827 O   0  0  0  0  0  0  0  0  0  0  0  0
   -9.5340   -1.7851   -0.6919 O   0  0  0  0  0  0  0  0  0  0  0  0
   -8.4815   -3.5435   -2.5694 O   0  0  0  0  0  0  0  0  0  0  0  0
    2.8813    2.2183   -1.8588 C   0  0  1  0  0  0  0  0  0  0  0  0
    2.1021    3.3166   -2.5826 C   0  0  1  0  0  0  0  0  0  0  0  0
    1.9314    1.2529   -1.1609 C   0  0  1  0  0  0  0  0  0  0  0  0
    1.0394    3.9370   -1.6752 C   0  0  2  0  0  0  0  0  0  0  0  0
    5.7518   -3.4241   -0.4444 C   0  0  2  0  0  0  0  0  0  0  0  0
    4.7951   -2.4642   -1.1520 C   0  0  2  0  0  0  0  0  0  0  0  0
    4.3089   -1.3679   -0.2037 C   0  0  1  0  0  0  0  0  0  0  0  0
    6.8363   -2.6665    0.3220 C   0  0  1  0  0  0  0  0  0  0  0  0
    0.2021    2.8593   -0.9859 C   0  0  1  0  0  0  0  0  0  0  0  0
    6.2235   -1.5620    1.1741 C   0  0  1  0  0  0  0  0  0  0  0  0
    2.6763    0.3406   -0.2411 C   0  0  0  0  0  0  0  0  0  0  0  0
    7.2807   -0.6546    1.7146 C   0  0  0  0  0  0  0  0  0  0  0  0
   -1.5144    2.6975    0.6524 C   0  0  0  0  0  0  0  0  0  0  0  0
   -2.4370    1.8889   -0.0119 C   0  0  0  0  0  0  0  0  0  0  0  0
   -1.4466    2.6835    2.0464 C   0  0  0  0  0  0  0  0  0  0  0  0
   -3.2923    1.0658    0.7213 C   0  0  0  0  0  0  0  0  0  0  0  0
   -3.2229    1.0529    2.1133 C   0  0  0  0  0  0  0  0  0  0  0  0
   -2.3006    1.8609    2.7822 C   0  0  0  0  0  0  0  0  0  0  0  0
   -4.1353    0.1746    2.8612 C   0  0  0  0  0  0  0  0  0  0  0  0
   -5.0451   -0.5293    0.7152 C   0  0  0  0  0  0  0  0  0  0  0  0
   -5.0704   -0.6343    2.0534 C   0  0  0  0  0  0  0  0  0  0  0  0
   -5.9501   -1.3192   -0.1438 C   0  0  0  0  0  0  0  0  0  0  0  0
   -7.3322   -1.1820   -0.0146 C   0  0  0  0  0  0  0  0  0  0  0  0
   -5.4220   -2.2014   -1.0863 C   0  0  0  0  0  0  0  0  0  0  0  0
   -8.1860   -1.9269   -0.8278 C   0  0  0  0  0  0  0  0  0  0  0  0
   -6.2759   -2.9464   -1.8997 C   0  0  0  0  0  0  0  0  0  0  0  0
   -7.6580   -2.8091   -1.7704 C   0  0  0  0  0  0  0  0  0  0  0  0
    3.5836    2.6631   -1.1430 H   0  0  0  0  0  0  0  0  0  0  0  0
    1.6502    2.9316   -3.5044 H   0  0  0  0  0  0  0  0  0  0  0  0
    1.3533    0.6354   -1.8596 H   0  0  0  0  0  0  0  0  0  0  0  0
    1.5048    4.5957   -0.9324 H   0  0  0  0  0  0  0  0  0  0  0  0
    5.2028   -4.0999    0.2220 H   0  0  0  0  0  0  0  0  0  0  0  0
    5.2743   -2.0240   -2.0345 H   0  0  0  0  0  0  0  0  0  0  0  0
    7.5761   -2.2576   -0.3771 H   0  0  0  0  0  0  0  0  0  0  0  0
    3.6817   -1.8113    0.5825 H   0  0  0  0  0  0  0  0  0  0  0  0
   -0.3915    2.3201   -1.7359 H   0  0  0  0  0  0  0  0  0  0  0  0
    5.6370   -1.9439    2.0190 H   0  0  0  0  0  0  0  0  0  0  0  0
    3.0449    1.0808   -3.4466 H   0  0  0  0  0  0  0  0  0  0  0  0
    3.4346    4.7014   -2.1875 H   0  0  0  0  0  0  0  0  0  0  0  0
   -0.2605    4.1824   -3.1225 H   0  0  0  0  0  0  0  0  0  0  0  0
    6.8741   -3.6832   -2.0326 H   0  0  0  0  0  0  0  0  0  0  0  0
    3.2161   -3.5866   -0.8489 H   0  0  0  0  0  0  0  0  0  0  0  0
    6.8819   -3.9421    1.8096 H   0  0  0  0  0  0  0  0  0  0  0  0
   -2.5107    1.9049   -1.0960 H   0  0  0  0  0  0  0  0  0  0  0  0
   -0.7248    3.3155    2.5582 H   0  0  0  0  0  0  0  0  0  0  0  0
    8.8127   -0.7498    2.9132 H   0  0  0  0  0  0  0  0  0  0  0  0
   -5.7508   -1.2941    2.5802 H   0  0  0  0  0  0  0  0  0  0  0  0
   -2.8354    1.2782    4.5417 H   0  0  0  0  0  0  0  0  0  0  0  0
   -7.7494   -0.4914    0.7154 H   0  0  0  0  0  0  0  0  0  0  0  0
   -4.3472   -2.3216   -1.1985 H   0  0  0  0  0  0  0  0  0  0  0  0
   -5.8510   -3.6305   -2.6294 H   0  0  0  0  0  0  0  0  0  0  0  0
   -9.7159   -1.1340    0.0075 H   0  0  0  0  0  0  0  0  0  0  0  0
   -7.9404   -4.0973   -3.1581 H   0  0  0  0  0  0  0  0  0  0  0  0
  1 21  1  0  0  0  0
  1 27  1  0  0  0  0
  2 25  1  0  0  0  0
  2 28  1  0  0  0  0
  3 25  1  0  0  0  0
  3 29  1  0  0  0  0
  4 19  1  0  0  0  0
  4 56  1  0  0  0  0
  5 20  1  0  0  0  0
  5 57  1  0  0  0  0
  6 27  1  0  0  0  0
  6 31  1  0  0  0  0
  7 22  1  0  0  0  0
  7 58  1  0  0  0  0
  8 23  1  0  0  0  0
  8 59  1  0  0  0  0
  9 24  1  0  0  0  0
  9 60  1  0  0  0  0
 10 26  1  0  0  0  0
 10 61  1  0  0  0  0
 11 29  2  0  0  0  0
 12 30  1  0  0  0  0
 12 64  1  0  0  0  0
 13 30  2  0  0  0  0
 14 34  1  0  0  0  0
 14 38  1  0  0  0  0
 15 36  1  0  0  0  0
 15 66  1  0  0  0  0
 16 37  2  0  0  0  0
 17 43  1  0  0  0  0
 17 70  1  0  0  0  0
 18 45  1  0  0  0  0
 18 71  1  0  0  0  0
 19 20  1  0  0  0  0
 19 21  1  0  0  0  0
 19 46  1  0  0  0  0
 20 22  1  0  0  0  0
 20 47  1  0  0  0  0
 21 29  1  0  0  0  0
 21 48  1  0  0  0  0
 22 27  1  0  0  0  0
 22 49  1  0  0  0  0
 23 24  1  0  0  0  0
 23 26  1  0  0  0  0
 23 50  1  0  0  0  0
 24 25  1  0  0  0  0
 24 51  1  0  0  0  0
 25 53  1  0  0  0  0
 26 28  1  0  0  0  0
 26 52  1  0  0  0  0
 27 54  1  0  0  0  0
 28 30  1  0  0  0  0
 28 55  1  0  0  0  0
 31 32  1  0  0  0  0
 31 33  2  0  0  0  0
 32 34  2  0  0  0  0
 32 62  1  0  0  0  0
 33 36  1  0  0  0  0
 33 63  1  0  0  0  0
 34 35  1  0  0  0  0
 35 36  2  0  0  0  0
 35 37  1  0  0  0  0
 37 39  1  0  0  0  0
 38 39  2  0  0  0  0
 38 40  1  0  0  0  0
 39 65  1  0  0  0  0
 40 41  2  0  0  0  0
 40 42  1  0  0  0  0
 41 43  1  0  0  0  0
 41 67  1  0  0  0  0
 42 44  2  0  0  0  0
 42 68  1  0  0  0  0
 43 45  2  0  0  0  0
 44 45  1  0  0  0  0
 44 69  1  0  0  0  0
M  END
> <PUBCHEM_COMPOUND_CID>
157009729

> <PUBCHEM_CONFORMER_RMSD>
1.2

> <PUBCHEM_CONFORMER_DIVERSEORDER>
1
250
121
268
70
251
100
215
265
71
155
286
45
32
298
175
221
187
184
259
200
194
65
296
297
33
260
55
9
192
201
237
41
79
242
197
285
275
160
228
263
108
141
122
125
272
249
81
246
92
36
72
59
74
241
73
99
150
227
138
252
214
208
15
61
103
132
278
258
96
235
84
270
10
154
130
82
30
256
207
198
139
287
277
218
217
159
294
206
283
25
136
281
203
232
168
169
83
280
76
288
116
128
149
117
85
97
244
253
49
157
119
112
292
64
204
123
174
80
236
163
279
183
48
190
147
161
243
172
289
164
115
63
264
179
210
205
224
239
266
5
56
274
176
143
75
118
77
196
144
181
209
148
126
240
110
60
295
105
152
233
166
22
68
153
3
223
58
202
257
162
267
95
102
189
114
93
27
170
42
173
211
16
167
101
273
191
113
44
8
185
225
145
6
31
109
140
50
89
282
229
111
127
254
262
199
91
104
212
20
186
293
247
87
222
271
255
124
86
66
226
7
291
14
67
13
230
248
220
269
238
134
193
182
11
171
142
98
4
195
151
188
216
26
290
165
276
234
178
35
177
19
69
51
53
135
129
180
88
284
52
120
47
90
17
146
133
261
158
37
245
156
231
18
46
131
219
23
57
213
62
78
38
137
34
39
107
28
2
54
106
94
21
29
12
40
43
24

> <PUBCHEM_MMFF94_PARTIAL_CHARGES>
61
1 -0.56
10 -0.68
11 -0.57
12 -0.65
13 -0.57
14 -0.16
15 -0.53
16 -0.57
17 -0.53
18 -0.53
19 0.28
2 -0.56
20 0.28
21 0.34
22 0.28
23 0.28
24 0.28
25 0.56
26 0.28
27 0.56
28 0.34
29 0.66
3 -0.43
30 0.66
31 0.08
32 -0.15
33 -0.15
34 0.08
35 0.09
36 0.08
37 0.47
38 0.05
39 -0.14
4 -0.68
40 0.03
41 -0.15
42 -0.15
43 0.08
44 -0.15
45 0.08
5 -0.68
56 0.4
57 0.4
58 0.4
59 0.4
6 -0.36
60 0.4
61 0.4
62 0.15
63 0.15
64 0.5
65 0.15
66 0.45
67 0.15
68 0.15
69 0.15
7 -0.68
70 0.45
71 0.45
8 -0.68
9 -0.68

> <PUBCHEM_EFFECTIVE_ROTOR_COUNT>
9.4

> <PUBCHEM_PHARMACOPHORE_FEATURES>
29
1 1 acceptor
1 10 acceptor
1 10 donor
1 11 acceptor
1 12 acceptor
1 13 acceptor
1 14 acceptor
1 15 donor
1 16 acceptor
1 17 donor
1 18 donor
1 2 acceptor
1 4 acceptor
1 4 donor
1 5 acceptor
1 5 donor
1 6 acceptor
1 7 acceptor
1 7 donor
1 8 acceptor
1 8 donor
1 9 acceptor
1 9 donor
3 12 13 30 anion
6 1 19 20 21 22 27 rings
6 14 34 35 37 38 39 rings
6 2 23 24 25 26 28 rings
6 31 32 33 34 35 36 rings
6 40 41 42 43 44 45 rings

> <PUBCHEM_HEAVY_ATOM_COUNT>
45

> <PUBCHEM_ATOM_DEF_STEREO_COUNT>
10

> <PUBCHEM_ATOM_UDEF_STEREO_COUNT>
0

> <PUBCHEM_BOND_DEF_STEREO_COUNT>
0

> <PUBCHEM_BOND_UDEF_STEREO_COUNT>
0

> <PUBCHEM_ISOTOPIC_ATOM_COUNT>
0

> <PUBCHEM_COMPONENT_COUNT>
1

> <PUBCHEM_CACTVS_TAUTO_COUNT>
-1

> <PUBCHEM_CONFORMER_ID>
095BC74100000001

> <PUBCHEM_MMFF94_ENERGY>
134.1472

> <PUBCHEM_FEATURE_SELFOVERLAP>
147.399

> <PUBCHEM_SHAPE_FINGERPRINT>
10055352 69 8430303663813112255
10462674 125 18342733001406061200
10622 236 18341625827867930517
10674148 151 11602815801161742522
11103572 95 17916588610024631719
11135926 11 17900007080750046684
11227150 75 18342170090091501715
11399510 152 15051192081414218119
11607047 403 18269268144740039232
12047536 79 12678648342411841795
12539747 167 15956689797392661588
12655387 17 17417269675784369345
12758862 65 16056036990847968283
13782708 43 18120939396394174050
13947947 73 18113889495176809407
14068700 675 18411980252324306745
14340393 91 14273748330252702934
14664723 55 8862937312144637291
15064981 113 15140957309933220178
15320295 40 18336818728139039499
15350500 16 18334848433266375347
15448158 91 18262245426280584072
15684389 69 18271807977865887704
16989713 51 18120381956488194006
19303781 99 18260558800612363579
19315092 285 18202565094138865200
19841028 212 18341613754636123399
20691028 202 9727337048495862034
20775438 99 18118401984489799859
21136928 129 11383254410269417466
21223535 225 17386000616845918229
21585480 29 18201719535790800378
21772528 278 10159691417442783785
21792965 184 18059848520210187230
23569914 152 17749935692895475141
25025965 108 17898843557510220042
3882209 13 18113615681857894516
397830 11 18199743649545709840
3986486 107 7997682143584118562
4017518 198 17259356470640146173
42767 24 18115591422996438570
4408954 87 17417799682574466974
4756261 7 17703782639683396510
4760202 70 18341618165968313644
50009960 94 17274246375389478303
508180 173 12973611040343416661
5223283 242 17385447652828792317
5874358 3 17823124658618571130
6058803 2 18122096206158272933
613672 6 17968389961209600752
6636798 310 17917991655148179867
6695519 79 11599439122968392906
6697151 62 17822010929941981096
6703917 75 11887086887244843108
6712543 237 17773885207188632195

> <PUBCHEM_SHAPE_MULTIPOLES>
820.43
25.33
5.88
3.53
8.84
1.35
-1.91
-38.06
0.06
-4.14
4.92
1.57
2.38
-7.34

> <PUBCHEM_SHAPE_SELFOVERLAP>
1798.822

> <PUBCHEM_SHAPE_VOLUME>
436.9

> <PUBCHEM_COORDINATE_TYPE>
2
5
10

$$$$
