5282128
  -OEChem-02172602413D

 61 65  0     0  0  0  0  0  0999 V2000
   -7.0224    1.3912   -0.8066 O   0  0  0  0  0  0  0  0  0  0  0  0
    6.8703    0.9248    1.4649 O   0  0  0  0  0  0  0  0  0  0  0  0
   -2.8654   -1.3819   -0.1699 O   0  0  0  0  0  0  0  0  0  0  0  0
    2.9033   -1.2191   -0.7808 O   0  0  0  0  0  0  0  0  0  0  0  0
   -4.5819   -1.2835    1.0511 O   0  0  0  0  0  0  0  0  0  0  0  0
   -5.1626    2.6453   -1.5308 O   0  0  0  0  0  0  0  0  0  0  0  0
    4.7613   -0.6831   -1.6219 O   0  0  0  0  0  0  0  0  0  0  0  0
    4.9008    1.8300    2.3911 O   0  0  0  0  0  0  0  0  0  0  0  0
  -10.9090   -0.9877    0.5605 O   0  0  0  0  0  0  0  0  0  0  0  0
   10.9609   -0.8058   -0.2396 O   0  0  0  0  0  0  0  0  0  0  0  0
   -0.6780    1.4818   -0.3260 N   0  0  0  0  0  0  0  0  0  0  0  0
   -3.4295    0.8586   -0.2856 N   0  0  0  0  0  0  0  0  0  0  0  0
    3.3915    0.7607    0.3121 N   0  0  0  0  0  0  0  0  0  0  0  0
    0.0050   -0.6297   -0.2408 C   0  0  0  0  0  0  0  0  0  0  0  0
   -1.1078    0.1816   -0.2691 C   0  0  0  0  0  0  0  0  0  0  0  0
    1.1090    0.2217   -0.2821 C   0  0  0  0  0  0  0  0  0  0  0  0
   -6.7772   -0.6240    0.5194 C   0  0  0  0  0  0  0  0  0  0  0  0
    6.8511   -0.3651   -0.5881 C   0  0  0  0  0  0  0  0  0  0  0  0
   -7.5570    0.3236   -0.1357 C   0  0  0  0  0  0  0  0  0  0  0  0
    7.5146    0.2084    0.4917 C   0  0  0  0  0  0  0  0  0  0  0  0
    0.6921    1.5126   -0.3341 C   0  0  0  0  0  0  0  0  0  0  0  0
   -4.7850    0.6969   -0.2464 C   0  0  0  0  0  0  0  0  0  0  0  0
    4.7432    0.5880    0.3858 C   0  0  0  0  0  0  0  0  0  0  0  0
   -2.4881   -0.1903   -0.2465 C   0  0  0  0  0  0  0  0  0  0  0  0
    2.5289   -0.1619   -0.2741 C   0  0  0  0  0  0  0  0  0  0  0  0
   -8.9477    0.2085   -0.1272 C   0  0  0  0  0  0  0  0  0  0  0  0
    8.8970    0.0645    0.6168 C   0  0  0  0  0  0  0  0  0  0  0  0
   -5.3151   -0.4778    0.4925 C   0  0  0  0  0  0  0  0  0  0  0  0
    5.3947   -0.1982   -0.6932 C   0  0  0  0  0  0  0  0  0  0  0  0
    0.0116   -2.1065   -0.1780 C   0  0  0  0  0  0  0  0  0  0  0  0
   -7.3784   -1.6935    1.1883 C   0  0  0  0  0  0  0  0  0  0  0  0
    7.5613   -1.0861   -1.5518 C   0  0  0  0  0  0  0  0  0  0  0  0
   -5.6432    1.5479   -0.8413 C   0  0  0  0  0  0  0  0  0  0  0  0
    5.4947    1.0955    1.3820 C   0  0  0  0  0  0  0  0  0  0  0  0
   -9.5527   -0.8573    0.5393 C   0  0  0  0  0  0  0  0  0  0  0  0
    9.6105   -0.6543   -0.3426 C   0  0  0  0  0  0  0  0  0  0  0  0
   -8.7691   -1.8067    1.1960 C   0  0  0  0  0  0  0  0  0  0  0  0
    8.9436   -1.2284   -1.4251 C   0  0  0  0  0  0  0  0  0  0  0  0
   -9.7957    1.2220   -0.8277 C   0  0  0  0  0  0  0  0  0  0  0  0
    9.6205    0.6774    1.7735 C   0  0  0  0  0  0  0  0  0  0  0  0
   -1.2634    2.3044   -0.3526 H   0  0  0  0  0  0  0  0  0  0  0  0
    1.2142    2.4584   -0.3825 H   0  0  0  0  0  0  0  0  0  0  0  0
   -0.6920   -2.4722    0.5769 H   0  0  0  0  0  0  0  0  0  0  0  0
   -0.2678   -2.5319   -1.1474 H   0  0  0  0  0  0  0  0  0  0  0  0
    0.9889   -2.5106    0.0989 H   0  0  0  0  0  0  0  0  0  0  0  0
   -3.0926    1.7894   -0.5023 H   0  0  0  0  0  0  0  0  0  0  0  0
    2.9803    1.5201    0.8453 H   0  0  0  0  0  0  0  0  0  0  0  0
   -6.7845   -2.4423    1.7049 H   0  0  0  0  0  0  0  0  0  0  0  0
    7.0591   -1.5404   -2.4012 H   0  0  0  0  0  0  0  0  0  0  0  0
   -9.2292   -2.6412    1.7187 H   0  0  0  0  0  0  0  0  0  0  0  0
    9.4889   -1.7905   -2.1788 H   0  0  0  0  0  0  0  0  0  0  0  0
   -9.7138    1.0923   -1.9119 H   0  0  0  0  0  0  0  0  0  0  0  0
  -10.8545    1.1523   -0.5601 H   0  0  0  0  0  0  0  0  0  0  0  0
   -9.4786    2.2375   -0.5659 H   0  0  0  0  0  0  0  0  0  0  0  0
    9.3133    1.7199    1.9121 H   0  0  0  0  0  0  0  0  0  0  0  0
    9.4029    0.1178    2.6892 H   0  0  0  0  0  0  0  0  0  0  0  0
   10.7064    0.6928    1.6392 H   0  0  0  0  0  0  0  0  0  0  0  0
   -4.2052    2.5592   -1.6575 H   0  0  0  0  0  0  0  0  0  0  0  0
    3.9366    1.7441    2.3347 H   0  0  0  0  0  0  0  0  0  0  0  0
  -11.1440   -1.7831    1.0684 H   0  0  0  0  0  0  0  0  0  0  0  0
   11.2802   -1.3313   -0.9931 H   0  0  0  0  0  0  0  0  0  0  0  0
  1 19  1  0  0  0  0
  1 33  1  0  0  0  0
  2 20  1  0  0  0  0
  2 34  1  0  0  0  0
  3 24  2  0  0  0  0
  4 25  2  0  0  0  0
  5 28  2  0  0  0  0
  6 33  1  0  0  0  0
  6 58  1  0  0  0  0
  7 29  2  0  0  0  0
  8 34  1  0  0  0  0
  8 59  1  0  0  0  0
  9 35  1  0  0  0  0
  9 60  1  0  0  0  0
 10 36  1  0  0  0  0
 10 61  1  0  0  0  0
 11 15  1  0  0  0  0
 11 21  1  0  0  0  0
 11 41  1  0  0  0  0
 12 22  1  0  0  0  0
 12 24  1  0  0  0  0
 12 46  1  0  0  0  0
 13 23  1  0  0  0  0
 13 25  1  0  0  0  0
 13 47  1  0  0  0  0
 14 15  2  0  0  0  0
 14 16  1  0  0  0  0
 14 30  1  0  0  0  0
 15 24  1  0  0  0  0
 16 21  2  0  0  0  0
 16 25  1  0  0  0  0
 17 19  2  0  0  0  0
 17 28  1  0  0  0  0
 17 31  1  0  0  0  0
 18 20  2  0  0  0  0
 18 29  1  0  0  0  0
 18 32  1  0  0  0  0
 19 26  1  0  0  0  0
 20 27  1  0  0  0  0
 21 42  1  0  0  0  0
 22 28  1  0  0  0  0
 22 33  2  0  0  0  0
 23 29  1  0  0  0  0
 23 34  2  0  0  0  0
 26 35  2  0  0  0  0
 26 39  1  0  0  0  0
 27 36  2  0  0  0  0
 27 40  1  0  0  0  0
 30 43  1  0  0  0  0
 30 44  1  0  0  0  0
 30 45  1  0  0  0  0
 31 37  2  0  0  0  0
 31 48  1  0  0  0  0
 32 38  2  0  0  0  0
 32 49  1  0  0  0  0
 35 37  1  0  0  0  0
 36 38  1  0  0  0  0
 37 50  1  0  0  0  0
 38 51  1  0  0  0  0
 39 52  1  0  0  0  0
 39 53  1  0  0  0  0
 39 54  1  0  0  0  0
 40 55  1  0  0  0  0
 40 56  1  0  0  0  0
 40 57  1  0  0  0  0
M  END
> <PUBCHEM_COMPOUND_CID>
5282128

> <PUBCHEM_CONFORMER_RMSD>
1

> <PUBCHEM_CONFORMER_DIVERSEORDER>
2
36
40
47
3
38
35
16
48
46
14
39
34
18
45
44
41
27
28
43
20
30
51
8
23
21
17
13
49
33
53
25
52
1
29
50
15
32
26
4
31
19
37
6
22
5
42
11
9
7
10
54
24
12

> <PUBCHEM_MMFF94_PARTIAL_CHARGES>
52
1 -0.16
10 -0.53
11 0.03
12 -0.54
13 -0.54
14 -0.18
15 -0.24
16 -0.09
17 0.09
18 0.09
19 0.08
2 -0.16
20 0.08
21 -0.3
22 0.12
23 0.12
24 0.71
25 0.72
26 -0.14
27 -0.14
28 0.47
29 0.47
3 -0.57
30 0.18
31 -0.15
32 -0.15
33 0.15
34 0.15
35 0.08
36 0.08
37 -0.15
38 -0.15
39 0.14
4 -0.57
40 0.14
41 0.27
42 0.15
46 0.37
47 0.37
48 0.15
49 0.15
5 -0.57
50 0.15
51 0.15
58 0.45
59 0.45
6 -0.53
60 0.45
61 0.45
7 -0.57
8 -0.53
9 -0.53

> <PUBCHEM_EFFECTIVE_ROTOR_COUNT>
6

> <PUBCHEM_PHARMACOPHORE_FEATURES>
19
1 1 acceptor
1 10 donor
1 11 cation
1 11 donor
1 12 donor
1 13 donor
1 2 acceptor
1 3 acceptor
1 4 acceptor
1 5 acceptor
1 6 donor
1 7 acceptor
1 8 donor
1 9 donor
5 11 14 15 16 21 rings
6 1 17 19 22 28 33 rings
6 17 19 26 31 35 37 rings
6 18 20 27 32 36 38 rings
6 2 18 20 23 29 34 rings

> <PUBCHEM_HEAVY_ATOM_COUNT>
40

> <PUBCHEM_ATOM_DEF_STEREO_COUNT>
0

> <PUBCHEM_ATOM_UDEF_STEREO_COUNT>
0

> <PUBCHEM_BOND_DEF_STEREO_COUNT>
0

> <PUBCHEM_BOND_UDEF_STEREO_COUNT>
0

> <PUBCHEM_ISOTOPIC_ATOM_COUNT>
0

> <PUBCHEM_COMPONENT_COUNT>
1

> <PUBCHEM_CACTVS_TAUTO_COUNT>
998

> <PUBCHEM_CONFORMER_ID>
0050995000000002

> <PUBCHEM_MMFF94_ENERGY>
142.8449

> <PUBCHEM_FEATURE_SELFOVERLAP>
96.735

> <PUBCHEM_SHAPE_FINGERPRINT>
10 15 18335418015002904841
10299344 5 16298384664861604048
10533779 47 17988932163085568738
10580692 12 17704072876725440328
11534866 41 18409167689471488090
11672396 167 12324779304094718248
12013929 2 18411138021779149307
12089408 11 16660646258285932085
12098696 120 18272929414932522518
12144603 126 15719111357366394506
12664476 115 18272651246590019401
13811026 1 18410576192775216781
14251764 46 17530966886486432798
14937079 2 18341611555275634464
15061470 23 17530964683221042596
15065858 18 18341891887695247845
15247644 1 16732701653359147650
15289351 153 17988922245794826433
15328684 2 16806151164678135361
15419008 47 18342170059711298240
15461852 350 17458063764144294741
15510794 2 18412827979693665159
16728433 110 17988923383438984817
19315958 150 18060416954841645584
20105231 36 18410295792416491118
21772524 286 16154533270078746941
21792934 111 18342455959178907080
21792961 116 18343021065126490849
232437 2 17894912931724585210
24893992 56 18408885157409953002
249057 3 17489585676054556086
3092352 35 16805323293025813130
335507 130 18335142003235079695
44389302 135 17313090944499118130
4625314 4 18334579096278556629
59521270 166 17458339725274463151
6081469 158 18131353011963412200
6691757 9 16660373567419740857
67123 10 18040156218988781364
9663363 56 18411417310591268828
9937071 3 18344149181331663590

> <PUBCHEM_SHAPE_MULTIPOLES>
749.55
42.42
1.73
1.36
0.47
0.17
-0.32
-6.65
-4.38
2.29
0.06
-2.15
0.21
4.7

> <PUBCHEM_SHAPE_SELFOVERLAP>
1693.292

> <PUBCHEM_SHAPE_VOLUME>
388.9

> <PUBCHEM_COORDINATE_TYPE>
2
5
10

$$$$
