76956004
  -OEChem-02172602573D

 74 79  0     1  0  0  0  0  0999 V2000
    0.1193   -1.2845    2.3873 O   0  0  0  0  0  0  0  0  0  0  0  0
   -1.8726   -2.4566    0.8200 O   0  0  0  0  0  0  0  0  0  0  0  0
    0.4052   -2.9324   -0.4963 O   0  0  0  0  0  0  0  0  0  0  0  0
    0.7831    2.9401   -1.1171 O   0  0  0  0  0  0  0  0  0  0  0  0
   -4.0390   -1.2710   -0.8510 O   0  0  0  0  0  0  0  0  0  0  0  0
   -4.4551    1.0889    1.1029 O   0  0  0  0  0  0  0  0  0  0  0  0
    5.2703   -1.3043   -0.1024 O   0  0  0  0  0  0  0  0  0  0  0  0
    1.8495    0.8924    1.3622 N   0  0  2  0  0  0  0  0  0  0  0  0
    0.7024    0.4675   -0.7837 C   0  0  2  0  0  0  0  0  0  0  0  0
    1.5938   -0.8349   -0.8690 C   0  0  2  0  0  0  0  0  0  0  0  0
    0.5521    0.5151    0.7600 C   0  0  1  0  0  0  0  0  0  0  0  0
   -0.7220    0.2833   -1.4490 C   0  0  1  0  0  0  0  0  0  0  0  0
    0.0184   -0.9421    1.0099 C   0  0  2  0  0  0  0  0  0  0  0  0
   -1.5996   -0.8845   -0.9551 C   0  0  1  0  0  0  0  0  0  0  0  0
   -1.4736   -1.0914    0.5693 C   0  0  1  0  0  0  0  0  0  0  0  0
    0.9832   -1.8213    0.1674 C   0  0  1  0  0  0  0  0  0  0  0  0
    3.0457   -0.4868   -0.4026 C   0  0  2  0  0  0  0  0  0  0  0  0
    1.3889    1.7006   -1.4774 C   0  0  2  0  0  0  0  0  0  0  0  0
   -1.6814    1.5006   -1.3411 C   0  0  0  0  0  0  0  0  0  0  0  0
   -3.0303    0.9590   -0.8447 C   0  0  1  0  0  0  0  0  0  0  0  0
   -3.0099   -0.4627   -1.3800 C   0  0  2  0  0  0  0  0  0  0  0  0
   -2.4577   -0.2223    1.4021 C   0  0  0  0  0  0  0  0  0  0  0  0
    2.9879    0.0043    1.0809 C   0  0  0  0  0  0  0  0  0  0  0  0
    3.6402    0.5894   -1.3324 C   0  0  0  0  0  0  0  0  0  0  0  0
   -3.0860    0.9899    0.6938 C   0  0  2  0  0  0  0  0  0  0  0  0
    2.8852    1.8935   -1.2727 C   0  0  0  0  0  0  0  0  0  0  0  0
    3.9833   -1.7108   -0.5094 C   0  0  0  0  0  0  0  0  0  0  0  0
    1.7685    1.2489    2.7720 C   0  0  0  0  0  0  0  0  0  0  0  0
    1.3884   -3.8880   -0.8773 C   0  0  0  0  0  0  0  0  0  0  0  0
    3.0253    1.9698    3.2290 C   0  0  0  0  0  0  0  0  0  0  0  0
    0.8854    3.8894   -2.1670 C   0  0  0  0  0  0  0  0  0  0  0  0
   -5.2842   -1.0413   -1.5043 C   0  0  0  0  0  0  0  0  0  0  0  0
   -4.5646    1.7023    2.3757 C   0  0  0  0  0  0  0  0  0  0  0  0
    1.5946   -1.2285   -1.8919 H   0  0  0  0  0  0  0  0  0  0  0  0
   -0.1854    1.2669    1.0549 H   0  0  0  0  0  0  0  0  0  0  0  0
   -0.5478    0.1116   -2.5221 H   0  0  0  0  0  0  0  0  0  0  0  0
   -1.3619   -1.8070   -1.4947 H   0  0  0  0  0  0  0  0  0  0  0  0
    1.7246   -2.2430    0.8497 H   0  0  0  0  0  0  0  0  0  0  0  0
    1.2518    1.5325   -2.5565 H   0  0  0  0  0  0  0  0  0  0  0  0
   -1.3364    2.2957   -0.6809 H   0  0  0  0  0  0  0  0  0  0  0  0
   -1.8052    1.9417   -2.3383 H   0  0  0  0  0  0  0  0  0  0  0  0
   -3.8588    1.5441   -1.2586 H   0  0  0  0  0  0  0  0  0  0  0  0
   -3.0626   -0.4668   -2.4785 H   0  0  0  0  0  0  0  0  0  0  0  0
   -1.9706    0.1302    2.3204 H   0  0  0  0  0  0  0  0  0  0  0  0
   -3.2684   -0.8661    1.7743 H   0  0  0  0  0  0  0  0  0  0  0  0
    3.9266    0.5358    1.2783 H   0  0  0  0  0  0  0  0  0  0  0  0
    2.9851   -0.8476    1.7710 H   0  0  0  0  0  0  0  0  0  0  0  0
    3.6400    0.2218   -2.3675 H   0  0  0  0  0  0  0  0  0  0  0  0
    4.6868    0.8038   -1.0842 H   0  0  0  0  0  0  0  0  0  0  0  0
   -2.5717    1.9004    1.0290 H   0  0  0  0  0  0  0  0  0  0  0  0
    3.0896    2.4227   -0.3342 H   0  0  0  0  0  0  0  0  0  0  0  0
    3.2920    2.5540   -2.0483 H   0  0  0  0  0  0  0  0  0  0  0  0
    4.0400   -2.0772   -1.5400 H   0  0  0  0  0  0  0  0  0  0  0  0
    3.6832   -2.5363    0.1385 H   0  0  0  0  0  0  0  0  0  0  0  0
    1.0480   -1.4569    2.6081 H   0  0  0  0  0  0  0  0  0  0  0  0
   -1.7006   -2.6440    1.7589 H   0  0  0  0  0  0  0  0  0  0  0  0
    1.6041    0.3861    3.4232 H   0  0  0  0  0  0  0  0  0  0  0  0
    0.9256    1.9332    2.9281 H   0  0  0  0  0  0  0  0  0  0  0  0
    0.8672   -4.7401   -1.3233 H   0  0  0  0  0  0  0  0  0  0  0  0
    1.9438   -4.2536   -0.0083 H   0  0  0  0  0  0  0  0  0  0  0  0
    2.0653   -3.4833   -1.6326 H   0  0  0  0  0  0  0  0  0  0  0  0
    3.8821    1.2954    3.3220 H   0  0  0  0  0  0  0  0  0  0  0  0
    3.2907    2.7884    2.5511 H   0  0  0  0  0  0  0  0  0  0  0  0
    2.8584    2.4069    4.2198 H   0  0  0  0  0  0  0  0  0  0  0  0
    5.8573   -2.0748   -0.1864 H   0  0  0  0  0  0  0  0  0  0  0  0
    0.3220    4.7783   -1.8681 H   0  0  0  0  0  0  0  0  0  0  0  0
    0.4408    3.5079   -3.0918 H   0  0  0  0  0  0  0  0  0  0  0  0
    1.9196    4.1977   -2.3379 H   0  0  0  0  0  0  0  0  0  0  0  0
   -6.0295   -1.7025   -1.0538 H   0  0  0  0  0  0  0  0  0  0  0  0
   -5.2098   -1.2806   -2.5695 H   0  0  0  0  0  0  0  0  0  0  0  0
   -5.6161   -0.0082   -1.3700 H   0  0  0  0  0  0  0  0  0  0  0  0
   -5.6245    1.7428    2.6425 H   0  0  0  0  0  0  0  0  0  0  0  0
   -4.0437    1.1267    3.1463 H   0  0  0  0  0  0  0  0  0  0  0  0
   -4.1836    2.7281    2.3473 H   0  0  0  0  0  0  0  0  0  0  0  0
  1 13  1  0  0  0  0
  1 55  1  0  0  0  0
  2 15  1  0  0  0  0
  2 56  1  0  0  0  0
  3 16  1  0  0  0  0
  3 29  1  0  0  0  0
  4 18  1  0  0  0  0
  4 31  1  0  0  0  0
  5 21  1  0  0  0  0
  5 32  1  0  0  0  0
  6 25  1  0  0  0  0
  6 33  1  0  0  0  0
  7 27  1  0  0  0  0
  7 65  1  0  0  0  0
  8 11  1  0  0  0  0
  8 23  1  0  0  0  0
  8 28  1  0  0  0  0
  9 10  1  0  0  0  0
  9 11  1  0  0  0  0
  9 12  1  0  0  0  0
  9 18  1  0  0  0  0
 10 16  1  0  0  0  0
 10 17  1  0  0  0  0
 10 34  1  0  0  0  0
 11 13  1  0  0  0  0
 11 35  1  0  0  0  0
 12 14  1  0  0  0  0
 12 19  1  0  0  0  0
 12 36  1  0  0  0  0
 13 15  1  0  0  0  0
 13 16  1  0  0  0  0
 14 15  1  0  0  0  0
 14 21  1  0  0  0  0
 14 37  1  0  0  0  0
 15 22  1  0  0  0  0
 16 38  1  0  0  0  0
 17 23  1  0  0  0  0
 17 24  1  0  0  0  0
 17 27  1  0  0  0  0
 18 26  1  0  0  0  0
 18 39  1  0  0  0  0
 19 20  1  0  0  0  0
 19 40  1  0  0  0  0
 19 41  1  0  0  0  0
 20 21  1  0  0  0  0
 20 25  1  0  0  0  0
 20 42  1  0  0  0  0
 21 43  1  0  0  0  0
 22 25  1  0  0  0  0
 22 44  1  0  0  0  0
 22 45  1  0  0  0  0
 23 46  1  0  0  0  0
 23 47  1  0  0  0  0
 24 26  1  0  0  0  0
 24 48  1  0  0  0  0
 24 49  1  0  0  0  0
 25 50  1  0  0  0  0
 26 51  1  0  0  0  0
 26 52  1  0  0  0  0
 27 53  1  0  0  0  0
 27 54  1  0  0  0  0
 28 30  1  0  0  0  0
 28 57  1  0  0  0  0
 28 58  1  0  0  0  0
 29 59  1  0  0  0  0
 29 60  1  0  0  0  0
 29 61  1  0  0  0  0
 30 62  1  0  0  0  0
 30 63  1  0  0  0  0
 30 64  1  0  0  0  0
 31 66  1  0  0  0  0
 31 67  1  0  0  0  0
 31 68  1  0  0  0  0
 32 69  1  0  0  0  0
 32 70  1  0  0  0  0
 32 71  1  0  0  0  0
 33 72  1  0  0  0  0
 33 73  1  0  0  0  0
 33 74  1  0  0  0  0
M  END
> <PUBCHEM_COMPOUND_CID>
76956004

> <PUBCHEM_CONFORMER_RMSD>
1

> <PUBCHEM_CONFORMER_DIVERSEORDER>
1

> <PUBCHEM_MMFF94_PARTIAL_CHARGES>
25
1 -0.68
11 0.27
13 0.28
15 0.28
16 0.28
18 0.28
2 -0.68
21 0.28
23 0.27
25 0.28
27 0.28
28 0.27
29 0.28
3 -0.56
31 0.28
32 0.28
33 0.28
4 -0.56
5 -0.56
55 0.4
56 0.4
6 -0.56
65 0.4
7 -0.68
8 -0.81

> <PUBCHEM_EFFECTIVE_ROTOR_COUNT>
8

> <PUBCHEM_PHARMACOPHORE_FEATURES>
15
1 1 acceptor
1 1 donor
1 2 acceptor
1 2 donor
1 3 acceptor
1 4 acceptor
1 5 acceptor
1 6 acceptor
1 7 acceptor
1 7 donor
1 8 cation
6 9 10 17 18 24 26 rings
8 12 14 15 19 20 21 22 25 rings
8 8 9 10 11 13 16 17 23 rings
8 9 10 11 12 13 14 15 16 rings

> <PUBCHEM_HEAVY_ATOM_COUNT>
33

> <PUBCHEM_ATOM_DEF_STEREO_COUNT>
10

> <PUBCHEM_ATOM_UDEF_STEREO_COUNT>
3

> <PUBCHEM_BOND_DEF_STEREO_COUNT>
0

> <PUBCHEM_BOND_UDEF_STEREO_COUNT>
0

> <PUBCHEM_ISOTOPIC_ATOM_COUNT>
0

> <PUBCHEM_COMPONENT_COUNT>
1

> <PUBCHEM_CACTVS_TAUTO_COUNT>
1

> <PUBCHEM_CONFORMER_ID>
0496416400000001

> <PUBCHEM_MMFF94_ENERGY>
185.2925

> <PUBCHEM_FEATURE_SELFOVERLAP>
77.629

> <PUBCHEM_SHAPE_FINGERPRINT>
10076449 9 17679049053124539734
10165383 225 18339943535742102497
10675989 125 16091467305390791212
10863032 1 18190476019846951862
11578080 2 17769657830204192040
12156800 1 14445361560977987357
12422481 6 17906437841256907594
12553582 1 18040714740525244685
12633257 1 18040724662063020963
12788726 201 17823700764161690700
13140716 1 18188225293511333358
13224815 77 17168144563601279821
13583140 156 17916883347886726971
14955137 171 17969807227012601885
15163728 17 17699565054856042576
15238133 3 17631467665071538576
16945 1 17894901932239461022
17349148 13 18262224612705576583
17980427 26 17631430337922024000
18981168 100 18053951937206068808
20691752 17 18334006181684705624
20739085 24 18188794767794975476
20905425 154 17974550413201727950
21033648 29 18200010967540339672
22149856 69 18269560615244562267
23419403 2 17843653653131798376
23559900 14 18262231243596920671
238 59 18188767395983579349
3286 77 17917421051420657302
3380486 77 13848143107194696248
3797600 57 16153717483373254312
484985 159 13633307910887932216
9981440 41 17327174854346829988

> <PUBCHEM_SHAPE_MULTIPOLES>
633.06
7.71
3.3
2.55
4.46
0.36
1.59
0.28
0.37
-1.45
-1.08
-0.34
-2.01
-0.49

> <PUBCHEM_SHAPE_SELFOVERLAP>
1380.915

> <PUBCHEM_SHAPE_VOLUME>
339.6

> <PUBCHEM_COORDINATE_TYPE>
2
5
10

$$$$
