6427141
  -OEChem-02172602563D

 32 31  0     1  0  0  0  0  0999 V2000
   -2.6896    0.1769    0.2719 O   0  0  0  0  0  0  0  0  0  0  0  0
   -4.3607   -0.6206   -1.1094 O   0  0  0  0  0  0  0  0  0  0  0  0
    2.0806    0.3829    0.1163 C   0  0  1  0  0  0  0  0  0  0  0  0
    0.7002    0.1072   -0.4458 C   0  0  0  0  0  0  0  0  0  0  0  0
   -0.3729   -0.3932    0.1992 C   0  0  0  0  0  0  0  0  0  0  0  0
    2.9872   -0.8380   -0.0013 C   0  0  0  0  0  0  0  0  0  0  0  0
   -1.7286   -0.6134   -0.4153 C   0  0  0  0  0  0  0  0  0  0  0  0
    2.6922    1.5973   -0.5507 C   0  0  0  0  0  0  0  0  0  0  0  0
   -0.2767   -0.7498    1.6608 C   0  0  0  0  0  0  0  0  0  0  0  0
    3.2886   -1.3947   -1.3684 C   0  0  0  0  0  0  0  0  0  0  0  0
    3.5087   -1.4148    1.0949 C   0  0  0  0  0  0  0  0  0  0  0  0
    3.0204    2.7227    0.0959 C   0  0  0  0  0  0  0  0  0  0  0  0
   -3.9763    0.0775   -0.1811 C   0  0  0  0  0  0  0  0  0  0  0  0
   -4.8732    0.9600    0.6330 C   0  0  0  0  0  0  0  0  0  0  0  0
    1.9706    0.6400    1.1783 H   0  0  0  0  0  0  0  0  0  0  0  0
    0.5732    0.3243   -1.5071 H   0  0  0  0  0  0  0  0  0  0  0  0
   -1.9959   -1.6744   -0.3398 H   0  0  0  0  0  0  0  0  0  0  0  0
   -1.7210   -0.3326   -1.4753 H   0  0  0  0  0  0  0  0  0  0  0  0
    2.8652    1.5592   -1.6243 H   0  0  0  0  0  0  0  0  0  0  0  0
   -0.7614   -1.7168    1.8386 H   0  0  0  0  0  0  0  0  0  0  0  0
   -0.7908    0.0029    2.2674 H   0  0  0  0  0  0  0  0  0  0  0  0
    0.7407   -0.8518    2.0403 H   0  0  0  0  0  0  0  0  0  0  0  0
    2.3673   -1.6879   -1.8810 H   0  0  0  0  0  0  0  0  0  0  0  0
    3.9272   -2.2834   -1.3168 H   0  0  0  0  0  0  0  0  0  0  0  0
    3.8112   -0.6558   -1.9834 H   0  0  0  0  0  0  0  0  0  0  0  0
    3.3074   -1.0304    2.0892 H   0  0  0  0  0  0  0  0  0  0  0  0
    4.1533   -2.2847    1.0244 H   0  0  0  0  0  0  0  0  0  0  0  0
    3.4502    3.5598   -0.4436 H   0  0  0  0  0  0  0  0  0  0  0  0
    2.8691    2.8303    1.1641 H   0  0  0  0  0  0  0  0  0  0  0  0
   -4.5552    2.0011    0.5364 H   0  0  0  0  0  0  0  0  0  0  0  0
   -4.8511    0.6459    1.6795 H   0  0  0  0  0  0  0  0  0  0  0  0
   -5.8993    0.8733    0.2645 H   0  0  0  0  0  0  0  0  0  0  0  0
  1  7  1  0  0  0  0
  1 13  1  0  0  0  0
  2 13  2  0  0  0  0
  3  4  1  0  0  0  0
  3  6  1  0  0  0  0
  3  8  1  0  0  0  0
  3 15  1  0  0  0  0
  4  5  2  0  0  0  0
  4 16  1  0  0  0  0
  5  7  1  0  0  0  0
  5  9  1  0  0  0  0
  6 10  1  0  0  0  0
  6 11  2  0  0  0  0
  7 17  1  0  0  0  0
  7 18  1  0  0  0  0
  8 12  2  0  0  0  0
  8 19  1  0  0  0  0
  9 20  1  0  0  0  0
  9 21  1  0  0  0  0
  9 22  1  0  0  0  0
 10 23  1  0  0  0  0
 10 24  1  0  0  0  0
 10 25  1  0  0  0  0
 11 26  1  0  0  0  0
 11 27  1  0  0  0  0
 12 28  1  0  0  0  0
 12 29  1  0  0  0  0
 13 14  1  0  0  0  0
 14 30  1  0  0  0  0
 14 31  1  0  0  0  0
 14 32  1  0  0  0  0
M  END
> <PUBCHEM_COMPOUND_CID>
6427141

> <PUBCHEM_CONFORMER_RMSD>
0.6

> <PUBCHEM_CONFORMER_DIVERSEORDER>
3
75
328
241
234
242
282
246
20
248
77
150
70
240
309
344
330
231
152
277
332
15
86
38
265
94
117
224
184
103
62
107
92
317
137
140
307
211
322
339
177
284
288
232
276
260
296
46
114
136
146
203
96
84
312
323
301
255
191
113
97
130
185
299
159
316
22
36
189
341
327
26
198
33
300
207
47
57
252
43
269
144
270
238
278
76
280
122
338
95
181
273
235
294
210
290
32
306
239
334
244
102
272
285
128
266
93
118
204
116
206
320
110
190
132
123
281
315
343
66
192
19
325
56
220
253
101
145
258
45
340
166
12
30
222
104
303
87
99
227
313
67
200
275
193
324
105
337
174
195
335
287
326
69
165
201
65
138
108
236
121
214
44
279
168
34
247
310
24
141
293
125
188
196
41
60
295
169
186
18
314
11
55
263
304
10
298
230
229
226
158
180
216
197
63
151
139
31
274
202
143
267
262
175
98
61
17
29
127
268
342
345
124
153
91
89
271
35
170
257
28
167
71
173
50
297
187
291
254
52
5
39
27
1
88
147
115
23
155
54
228
217
85
194
319
311
308
213
183
286
83
14
176
215
126
179
321
162
148
182
81
100
237
305
264
149
251
73
218
171
302
80
289
2
119
82
135
51
9
161
72
25
163
133
245
199
336
249
292
208
178
21
283
221
157
49
109
68
318
7
333
6
154
209
13
64
37
58
233
212
331
205
42
8
225
90
78
111
112
40
134
131
48
53
256
16
172
160
329
259
59
261
219
79
120
142
74
223
156
106
164
243
129
4
250

> <PUBCHEM_MMFF94_PARTIAL_CHARGES>
20
1 -0.43
10 0.14
11 -0.3
12 -0.3
13 0.66
14 0.06
16 0.15
19 0.15
2 -0.57
26 0.15
27 0.15
28 0.15
29 0.15
3 0.41
4 -0.29
5 -0.28
6 -0.28
7 0.42
8 -0.29
9 0.14

> <PUBCHEM_EFFECTIVE_ROTOR_COUNT>
6

> <PUBCHEM_PHARMACOPHORE_FEATURES>
4
1 12 hydrophobe
1 2 acceptor
1 9 hydrophobe
4 3 4 6 8 hydrophobe

> <PUBCHEM_HEAVY_ATOM_COUNT>
14

> <PUBCHEM_ATOM_DEF_STEREO_COUNT>
0

> <PUBCHEM_ATOM_UDEF_STEREO_COUNT>
1

> <PUBCHEM_BOND_DEF_STEREO_COUNT>
1

> <PUBCHEM_BOND_UDEF_STEREO_COUNT>
0

> <PUBCHEM_ISOTOPIC_ATOM_COUNT>
0

> <PUBCHEM_COMPONENT_COUNT>
1

> <PUBCHEM_CACTVS_TAUTO_COUNT>
1

> <PUBCHEM_CONFORMER_ID>
0062120500000003

> <PUBCHEM_MMFF94_ENERGY>
17.8151

> <PUBCHEM_FEATURE_SELFOVERLAP>
20.309

> <PUBCHEM_SHAPE_FINGERPRINT>
11089746 13 18115855327272458309
11132069 177 16733261348180531147
11543360 7 18201155567866456007
12346645 6 18342457075769800716
12616999 72 17560806579812967612
12932764 1 17676761028707223815
13675066 3 17417806219250192831
14115302 16 17489868241315032958
18186145 218 18113338617643044703
19026448 5 18272930548787596703
20369508 70 18186794752059761674
20645476 183 17559957790979752975
20645477 70 18411984675871492254
212847 35 17749112145025831053
21486144 27 17968374657898077462
21503847 285 18335143051133473705
2255824 54 18409166619364494550
23380061 81 18335142002823537992
23402539 116 17988071206530343533
23532345 12 18060423469373311584
23559900 14 17418096486098857142
3286 77 17967806107534233262
474 4 18043811098418654140
5104073 3 18408325510275469601
522135 26 18040437667984860342
633830 44 18408887326252087399
7364860 26 18343304795071879708
9971528 1 18130224857346171918

> <PUBCHEM_SHAPE_MULTIPOLES>
276.37
9.13
1.88
1.19
10.77
1.38
-0.13
0.8
0.73
-2.74
-0.06
-0.25
-0.47
-0.36

> <PUBCHEM_SHAPE_SELFOVERLAP>
526.885

> <PUBCHEM_SHAPE_VOLUME>
170.1

> <PUBCHEM_COORDINATE_TYPE>
2
5
10

$$$$
