101804791
  -OEChem-02172602513D

 36 36  0     0  0  0  0  0  0999 V2000
   -3.1092   -0.0741   -0.1844 O   0  0  0  0  0  0  0  0  0  0  0  0
   -5.5265    1.2133    0.3945 O   0  0  0  0  0  0  0  0  0  0  0  0
    5.1848    1.4454   -0.1096 O   0  0  0  0  0  0  0  0  0  0  0  0
   -0.8781    0.4922    1.2430 O   0  0  0  0  0  0  0  0  0  0  0  0
    0.9901   -3.3301   -0.7132 O   0  0  0  0  0  0  0  0  0  0  0  0
    0.3447   -1.2408    0.2257 N   0  0  0  0  0  0  0  0  0  0  0  0
    1.5619   -0.5649    0.1414 C   0  0  0  0  0  0  0  0  0  0  0  0
   -2.1714   -1.1110    0.0332 C   0  0  0  0  0  0  0  0  0  0  0  0
   -0.8651   -0.5306    0.5532 C   0  0  0  0  0  0  0  0  0  0  0  0
   -4.3484   -0.5767   -0.6726 C   0  0  0  0  0  0  0  0  0  0  0  0
    1.5943    0.7642   -0.2808 C   0  0  0  0  0  0  0  0  0  0  0  0
    2.7471   -1.2184    0.4791 C   0  0  0  0  0  0  0  0  0  0  0  0
   -5.3116    0.5794   -0.8606 C   0  0  0  0  0  0  0  0  0  0  0  0
    3.9967    0.7863   -0.0271 C   0  0  0  0  0  0  0  0  0  0  0  0
    2.8116    1.4398   -0.3650 C   0  0  0  0  0  0  0  0  0  0  0  0
    3.9645   -0.5429    0.3949 C   0  0  0  0  0  0  0  0  0  0  0  0
    0.2769   -2.6553    0.0226 C   0  0  0  0  0  0  0  0  0  0  0  0
   -6.4074    2.3215    0.2740 C   0  0  0  0  0  0  0  0  0  0  0  0
    5.1450    2.8025   -0.5483 C   0  0  0  0  0  0  0  0  0  0  0  0
   -1.9914   -1.6357   -0.9111 H   0  0  0  0  0  0  0  0  0  0  0  0
   -2.5549   -1.8119    0.7826 H   0  0  0  0  0  0  0  0  0  0  0  0
   -4.1906   -1.0908   -1.6270 H   0  0  0  0  0  0  0  0  0  0  0  0
   -4.7569   -1.2840    0.0585 H   0  0  0  0  0  0  0  0  0  0  0  0
    0.6948    1.2945   -0.5816 H   0  0  0  0  0  0  0  0  0  0  0  0
    2.7574   -2.2443    0.8367 H   0  0  0  0  0  0  0  0  0  0  0  0
   -6.2636    0.2121   -1.2592 H   0  0  0  0  0  0  0  0  0  0  0  0
   -4.8827    1.3086   -1.5577 H   0  0  0  0  0  0  0  0  0  0  0  0
    2.7656    2.4682   -0.7067 H   0  0  0  0  0  0  0  0  0  0  0  0
    4.8841   -1.0550    0.6646 H   0  0  0  0  0  0  0  0  0  0  0  0
   -0.6007   -3.0934    0.5252 H   0  0  0  0  0  0  0  0  0  0  0  0
   -5.9837    3.0780   -0.3936 H   0  0  0  0  0  0  0  0  0  0  0  0
   -7.3847    1.9966   -0.0959 H   0  0  0  0  0  0  0  0  0  0  0  0
   -6.5394    2.7655    1.2644 H   0  0  0  0  0  0  0  0  0  0  0  0
    6.1761    3.1711   -0.5528 H   0  0  0  0  0  0  0  0  0  0  0  0
    4.5828    3.4343    0.1478 H   0  0  0  0  0  0  0  0  0  0  0  0
    4.7726    2.8826   -1.5752 H   0  0  0  0  0  0  0  0  0  0  0  0
  1  8  1  0  0  0  0
  1 10  1  0  0  0  0
  2 13  1  0  0  0  0
  2 18  1  0  0  0  0
  3 14  1  0  0  0  0
  3 19  1  0  0  0  0
  4  9  2  0  0  0  0
  5 17  2  0  0  0  0
  6  7  1  0  0  0  0
  6  9  1  0  0  0  0
  6 17  1  0  0  0  0
  7 11  2  0  0  0  0
  7 12  1  0  0  0  0
  8  9  1  0  0  0  0
  8 20  1  0  0  0  0
  8 21  1  0  0  0  0
 10 13  1  0  0  0  0
 10 22  1  0  0  0  0
 10 23  1  0  0  0  0
 11 15  1  0  0  0  0
 11 24  1  0  0  0  0
 12 16  2  0  0  0  0
 12 25  1  0  0  0  0
 13 26  1  0  0  0  0
 13 27  1  0  0  0  0
 14 15  2  0  0  0  0
 14 16  1  0  0  0  0
 15 28  1  0  0  0  0
 16 29  1  0  0  0  0
 17 30  1  0  0  0  0
 18 31  1  0  0  0  0
 18 32  1  0  0  0  0
 18 33  1  0  0  0  0
 19 34  1  0  0  0  0
 19 35  1  0  0  0  0
 19 36  1  0  0  0  0
M  END
> <PUBCHEM_COMPOUND_CID>
101804791

> <PUBCHEM_CONFORMER_RMSD>
0.8

> <PUBCHEM_CONFORMER_DIVERSEORDER>
1
147
53
70
69
152
137
85
59
132
88
115
15
122
54
128
118
141
112
148
133
12
18
149
45
34
35
63
95
98
4
125
3
30
22
31
66
82
96
123
142
94
62
79
9
8
116
87
19
136
20
120
89
90
65
129
80
150
99
153
102
7
25
55
97
51
61
130
38
106
10
92
84
47
91
64
134
44
154
42
11
2
76
111
29
109
131
41
49
114
14
73
127
28
103
56
23
27
40
32
33
74
57
135
71
117
16
26
110
146
60
126
75
37
93
104
78
143
139
77
43
121
145
151
140
50
119
107
6
113
46
101
39
108
144
5
100
86
68
52
48
105
83
81
72
21
36
138
24
58
13
67
17
124

> <PUBCHEM_MMFF94_PARTIAL_CHARGES>
24
1 -0.56
10 0.28
11 -0.15
12 -0.15
13 0.28
14 0.08
15 -0.15
16 -0.15
17 0.57
18 0.28
19 0.28
2 -0.56
24 0.15
25 0.15
28 0.15
29 0.15
3 -0.36
30 0.06
4 -0.57
5 -0.57
6 -0.24
7 0.12
8 0.34
9 0.57

> <PUBCHEM_EFFECTIVE_ROTOR_COUNT>
9

> <PUBCHEM_PHARMACOPHORE_FEATURES>
6
1 1 acceptor
1 2 acceptor
1 3 acceptor
1 4 acceptor
1 5 acceptor
6 7 11 12 14 15 16 rings

> <PUBCHEM_HEAVY_ATOM_COUNT>
19

> <PUBCHEM_ATOM_DEF_STEREO_COUNT>
0

> <PUBCHEM_ATOM_UDEF_STEREO_COUNT>
0

> <PUBCHEM_BOND_DEF_STEREO_COUNT>
0

> <PUBCHEM_BOND_UDEF_STEREO_COUNT>
0

> <PUBCHEM_ISOTOPIC_ATOM_COUNT>
0

> <PUBCHEM_COMPONENT_COUNT>
1

> <PUBCHEM_CACTVS_TAUTO_COUNT>
1

> <PUBCHEM_CONFORMER_ID>
06116AF700000001

> <PUBCHEM_MMFF94_ENERGY>
73.4858

> <PUBCHEM_FEATURE_SELFOVERLAP>
30.46

> <PUBCHEM_SHAPE_FINGERPRINT>
10411042 1 17689152305968319026
10595046 47 18411975876269369343
12293681 160 17917435353672394136
12633257 1 15141237805967993252
12892183 10 14635131409369508540
13103583 49 10953726765098779319
13167372 99 18337670815428068401
13785724 45 17903629692950006730
13955234 65 17750507386632600931
14251764 75 18262808474396339349
14252887 29 11458697279669012554
17834072 32 18336547217422788134
17959699 21 18411698773026053553
19784866 34 18409729560770127379
20612939 158 18270118990329215295
21304253 335 18260270767120235357
21637258 2 12247687045531838404
23402539 116 18201152264904632814
23402655 69 18341890822400933734
23559900 14 18271520914678185258
270888 7 18409448119615461660
2838139 119 18114452435659632804
2916195 48 17821725027476129493
293599 30 18336546118233017652
29717793 49 17917435302686602516
335352 9 18408603674275623118
34934 24 18115864265072669936
474 4 18408323268033755419
5104073 3 17894908559368569011
59682541 52 17703246057024842444
633830 44 18411978057290167535
8272917 22 18340769230504992831

> <PUBCHEM_SHAPE_MULTIPOLES>
356.68
13.37
2.88
0.82
15.28
0.59
0.02
-12.96
-1.07
-1.36
-0.45
0.29
-0.01
-0.97

> <PUBCHEM_SHAPE_SELFOVERLAP>
720.649

> <PUBCHEM_SHAPE_VOLUME>
206.5

> <PUBCHEM_COORDINATE_TYPE>
2
5
10

$$$$
