460893
  -OEChem-02172602313D

 64 66  0     1  0  0  0  0  0999 V2000
   -2.3394    1.1507   -0.6552 O   0  0  0  0  0  0  0  0  0  0  0  0
    1.9396    1.2704   -0.9753 O   0  0  0  0  0  0  0  0  0  0  0  0
    0.3172    4.4419    1.6201 O   0  0  0  0  0  0  0  0  0  0  0  0
   -1.0088    2.8334   -2.4296 O   0  0  0  0  0  0  0  0  0  0  0  0
    2.4348    2.8264    1.9940 O   0  0  0  0  0  0  0  0  0  0  0  0
    0.7243    1.2971    2.2633 O   0  0  0  0  0  0  0  0  0  0  0  0
   -2.3429   -0.2830    1.1565 O   0  0  0  0  0  0  0  0  0  0  0  0
    3.8142    2.1655   -1.9864 O   0  0  0  0  0  0  0  0  0  0  0  0
   -9.3741   -2.7172    1.6501 O   0  0  0  0  0  0  0  0  0  0  0  0
    9.1039   -3.0226   -1.1040 O   0  0  0  0  0  0  0  0  0  0  0  0
  -10.3385   -2.2110   -0.9065 O   0  0  0  0  0  0  0  0  0  0  0  0
    8.1176   -4.4824    1.0449 O   0  0  0  0  0  0  0  0  0  0  0  0
    0.4253    3.2369    0.8622 C   0  0  0  0  0  0  0  0  0  0  0  0
   -0.9960    1.5309   -0.3717 C   0  0  2  0  0  0  0  0  0  0  0  0
    1.1485    2.3596   -1.4434 C   0  0  2  0  0  0  0  0  0  0  0  0
   -0.9864    2.7090    0.6032 C   0  0  0  0  0  0  0  0  0  0  0  0
    1.1993    3.5155   -0.4337 C   0  0  0  0  0  0  0  0  0  0  0  0
   -0.2780    1.8577   -1.6869 C   0  0  0  0  0  0  0  0  0  0  0  0
    1.1839    2.3256    1.7856 C   0  0  0  0  0  0  0  0  0  0  0  0
   -2.8862    0.2340    0.1933 C   0  0  0  0  0  0  0  0  0  0  0  0
    3.2571    1.3050   -1.3234 C   0  0  0  0  0  0  0  0  0  0  0  0
    3.2704    2.0527    2.8608 C   0  0  0  0  0  0  0  0  0  0  0  0
   -4.2706   -0.0338   -0.2583 C   0  0  0  0  0  0  0  0  0  0  0  0
    3.9083    0.1034   -0.7539 C   0  0  0  0  0  0  0  0  0  0  0  0
   -5.0278   -0.9102    0.4168 C   0  0  0  0  0  0  0  0  0  0  0  0
    5.2180   -0.0976   -0.9581 C   0  0  0  0  0  0  0  0  0  0  0  0
   -6.4192   -1.2527    0.0731 C   0  0  0  0  0  0  0  0  0  0  0  0
    5.9796   -1.2460   -0.4363 C   0  0  0  0  0  0  0  0  0  0  0  0
   -7.2526   -1.8294    1.0316 C   0  0  0  0  0  0  0  0  0  0  0  0
    7.1963   -1.5992   -1.0198 C   0  0  0  0  0  0  0  0  0  0  0  0
   -6.9029   -1.0000   -1.2105 C   0  0  0  0  0  0  0  0  0  0  0  0
    5.4839   -1.9798    0.6414 C   0  0  0  0  0  0  0  0  0  0  0  0
   -8.5699   -2.1532    0.7065 C   0  0  0  0  0  0  0  0  0  0  0  0
    7.9177   -2.6860   -0.5254 C   0  0  0  0  0  0  0  0  0  0  0  0
   -8.2201   -1.3241   -1.5356 C   0  0  0  0  0  0  0  0  0  0  0  0
    6.2050   -3.0667    1.1356 C   0  0  0  0  0  0  0  0  0  0  0  0
   -9.0536   -1.9006   -0.5771 C   0  0  0  0  0  0  0  0  0  0  0  0
    7.4219   -3.4199    0.5523 C   0  0  0  0  0  0  0  0  0  0  0  0
   -0.4621    0.6822    0.0743 H   0  0  0  0  0  0  0  0  0  0  0  0
    1.5398    2.7278   -2.4013 H   0  0  0  0  0  0  0  0  0  0  0  0
   -1.4834    2.4310    1.5421 H   0  0  0  0  0  0  0  0  0  0  0  0
   -1.6145    3.5185    0.2050 H   0  0  0  0  0  0  0  0  0  0  0  0
    0.7647    4.4084   -0.9044 H   0  0  0  0  0  0  0  0  0  0  0  0
    2.2411    3.7844   -0.2223 H   0  0  0  0  0  0  0  0  0  0  0  0
   -0.2595    0.9484   -2.3007 H   0  0  0  0  0  0  0  0  0  0  0  0
    1.2014    4.8426    1.6823 H   0  0  0  0  0  0  0  0  0  0  0  0
   -0.5432    2.9713   -3.2720 H   0  0  0  0  0  0  0  0  0  0  0  0
    4.2457    2.5427    2.9190 H   0  0  0  0  0  0  0  0  0  0  0  0
    3.4079    1.0451    2.4567 H   0  0  0  0  0  0  0  0  0  0  0  0
    2.8365    2.0110    3.8643 H   0  0  0  0  0  0  0  0  0  0  0  0
   -4.6228    0.5185   -1.1216 H   0  0  0  0  0  0  0  0  0  0  0  0
    3.2797   -0.5790   -0.1938 H   0  0  0  0  0  0  0  0  0  0  0  0
   -4.6289   -1.4166    1.2927 H   0  0  0  0  0  0  0  0  0  0  0  0
    5.7945    0.6107   -1.5487 H   0  0  0  0  0  0  0  0  0  0  0  0
   -6.8794   -2.0271    2.0343 H   0  0  0  0  0  0  0  0  0  0  0  0
    7.5856   -1.0305   -1.8616 H   0  0  0  0  0  0  0  0  0  0  0  0
   -6.2852   -0.5715   -1.9942 H   0  0  0  0  0  0  0  0  0  0  0  0
    4.5523   -1.7289    1.1399 H   0  0  0  0  0  0  0  0  0  0  0  0
   -8.5834   -1.1260   -2.5406 H   0  0  0  0  0  0  0  0  0  0  0  0
    5.8100   -3.6272    1.9788 H   0  0  0  0  0  0  0  0  0  0  0  0
   -8.8713   -2.8180    2.4765 H   0  0  0  0  0  0  0  0  0  0  0  0
    9.2876   -2.4060   -1.8334 H   0  0  0  0  0  0  0  0  0  0  0  0
  -10.4958   -1.9656   -1.8344 H   0  0  0  0  0  0  0  0  0  0  0  0
    7.6227   -4.8678    1.7883 H   0  0  0  0  0  0  0  0  0  0  0  0
  1 14  1  0  0  0  0
  1 20  1  0  0  0  0
  2 15  1  0  0  0  0
  2 21  1  0  0  0  0
  3 13  1  0  0  0  0
  3 46  1  0  0  0  0
  4 18  1  0  0  0  0
  4 47  1  0  0  0  0
  5 19  1  0  0  0  0
  5 22  1  0  0  0  0
  6 19  2  0  0  0  0
  7 20  2  0  0  0  0
  8 21  2  0  0  0  0
  9 33  1  0  0  0  0
  9 61  1  0  0  0  0
 10 34  1  0  0  0  0
 10 62  1  0  0  0  0
 11 37  1  0  0  0  0
 11 63  1  0  0  0  0
 12 38  1  0  0  0  0
 12 64  1  0  0  0  0
 13 16  1  0  0  0  0
 13 17  1  0  0  0  0
 13 19  1  0  0  0  0
 14 16  1  0  0  0  0
 14 18  1  0  0  0  0
 14 39  1  0  0  0  0
 15 17  1  0  0  0  0
 15 18  1  0  0  0  0
 15 40  1  0  0  0  0
 16 41  1  0  0  0  0
 16 42  1  0  0  0  0
 17 43  1  0  0  0  0
 17 44  1  0  0  0  0
 18 45  1  0  0  0  0
 20 23  1  0  0  0  0
 21 24  1  0  0  0  0
 22 48  1  0  0  0  0
 22 49  1  0  0  0  0
 22 50  1  0  0  0  0
 23 25  2  3  0  0  0
 23 51  1  0  0  0  0
 24 26  2  3  0  0  0
 24 52  1  0  0  0  0
 25 27  1  0  0  0  0
 25 53  1  0  0  0  0
 26 28  1  0  0  0  0
 26 54  1  0  0  0  0
 27 29  2  0  0  0  0
 27 31  1  0  0  0  0
 28 30  2  0  0  0  0
 28 32  1  0  0  0  0
 29 33  1  0  0  0  0
 29 55  1  0  0  0  0
 30 34  1  0  0  0  0
 30 56  1  0  0  0  0
 31 35  2  0  0  0  0
 31 57  1  0  0  0  0
 32 36  2  0  0  0  0
 32 58  1  0  0  0  0
 33 37  2  0  0  0  0
 34 38  2  0  0  0  0
 35 37  1  0  0  0  0
 35 59  1  0  0  0  0
 36 38  1  0  0  0  0
 36 60  1  0  0  0  0
M  END
> <PUBCHEM_COMPOUND_CID>
460893

> <PUBCHEM_CONFORMER_RMSD>
1.2

> <PUBCHEM_CONFORMER_DIVERSEORDER>
1
30
45
23
17
36
11
22
20
10
39
44
24
19
28
25
15
16
38
18
46
34
37
7
21
41
8
9
43
27
3
33
12
35
42
5
40
29
32
13
14
26
31
4
6
2

> <PUBCHEM_MMFF94_PARTIAL_CHARGES>
52
1 -0.43
10 -0.53
11 -0.53
12 -0.53
13 0.34
14 0.28
15 0.28
18 0.28
19 0.66
2 -0.43
20 0.71
21 0.71
22 0.28
23 -0.14
24 -0.14
25 -0.18
26 -0.18
27 0.03
28 0.03
29 -0.15
3 -0.68
30 -0.15
31 -0.15
32 -0.15
33 0.08
34 0.08
35 -0.15
36 -0.15
37 0.08
38 0.08
4 -0.68
46 0.4
47 0.4
5 -0.43
51 0.15
52 0.15
53 0.15
54 0.15
55 0.15
56 0.15
57 0.15
58 0.15
59 0.15
6 -0.57
60 0.15
61 0.45
62 0.45
63 0.45
64 0.45
7 -0.57
8 -0.57
9 -0.53

> <PUBCHEM_EFFECTIVE_ROTOR_COUNT>
11.2

> <PUBCHEM_PHARMACOPHORE_FEATURES>
14
1 10 donor
1 11 donor
1 12 donor
1 3 acceptor
1 3 donor
1 4 acceptor
1 4 donor
1 6 acceptor
1 7 acceptor
1 8 acceptor
1 9 donor
6 13 14 15 16 17 18 rings
6 27 29 31 33 35 37 rings
6 28 30 32 34 36 38 rings

> <PUBCHEM_HEAVY_ATOM_COUNT>
38

> <PUBCHEM_ATOM_DEF_STEREO_COUNT>
0

> <PUBCHEM_ATOM_UDEF_STEREO_COUNT>
0

> <PUBCHEM_BOND_DEF_STEREO_COUNT>
0

> <PUBCHEM_BOND_UDEF_STEREO_COUNT>
2

> <PUBCHEM_ISOTOPIC_ATOM_COUNT>
0

> <PUBCHEM_COMPONENT_COUNT>
1

> <PUBCHEM_CACTVS_TAUTO_COUNT>
27

> <PUBCHEM_CONFORMER_ID>
0007085D00000001

> <PUBCHEM_MMFF94_ENERGY>
101.1041

> <PUBCHEM_FEATURE_SELFOVERLAP>
71.06

> <PUBCHEM_SHAPE_FINGERPRINT>
10258705 36 17678753439163769747
11297750 10 18411129243078051765
11409948 35 18334294289014256303
1200032 147 10052469766870302740
12013929 112 17313373514829885599
12758862 65 18060425728985610402
13947947 140 18341334392657033950
14068700 675 18338239267756549344
14359421 15 17822287950990588635
14617042 71 9295296049759692343
14664723 55 8214144096807919350
14904525 67 9654484504185071331
14931854 50 16805325466084040314
15152005 77 18342455898585765919
15475509 35 18272087223211142208
15803439 3 14201408166195465120
16993427 108 18342172245853964874
19304671 126 13912618198802451326
19841028 212 18334577949459309874
2026 5 18335701624747706007
21344244 78 16056889047681557297
21639891 77 17987232236209717456
23523787 8 14634876357601686440
23569943 247 18411139156722102179
24771293 8 10952046750255106035
25242607 90 18131628989012913558
406291 66 18409449155045555910
4112364 45 13973675174339727842
42767 28 16588032307575849770
44880168 125 18263635320969282751
474113 269 18412824686223837255
4760202 70 18188505618787321614
5109719 28 10159705724512142175
5372103 7 8286199457135474194
5718773 13 18334013861302541318
6327066 14 8646480813265219684

> <PUBCHEM_SHAPE_MULTIPOLES>
711.59
30.44
5.44
2.09
39.24
0.76
-0.57
-54.64
2.65
-8.06
-1.63
-0.82
1.51
0.34

> <PUBCHEM_SHAPE_SELFOVERLAP>
1523.91

> <PUBCHEM_SHAPE_VOLUME>
389.1

> <PUBCHEM_COORDINATE_TYPE>
2
5
10

$$$$
