44259671
  -OEChem-02172602313D

 77 81  0     1  0  0  0  0  0999 V2000
    4.0923   -0.9724   -1.1730 O   0  0  0  0  0  0  0  0  0  0  0  0
    2.3095    1.4867    2.1471 O   0  0  0  0  0  0  0  0  0  0  0  0
    4.0234    1.2246    0.5308 O   0  0  0  0  0  0  0  0  0  0  0  0
    6.8082   -1.8828    1.1399 O   0  0  0  0  0  0  0  0  0  0  0  0
    5.4959   -4.4027    0.6402 O   0  0  0  0  0  0  0  0  0  0  0  0
    2.1393   -2.0755   -1.8086 O   0  0  0  0  0  0  0  0  0  0  0  0
    3.2036    4.2953    2.2971 O   0  0  0  0  0  0  0  0  0  0  0  0
    2.4106    3.1565   -1.0696 O   0  0  0  0  0  0  0  0  0  0  0  0
    2.6550   -4.0682    0.1526 O   0  0  0  0  0  0  0  0  0  0  0  0
    0.3818    3.6836    1.8886 O   0  0  0  0  0  0  0  0  0  0  0  0
    0.2550   -0.5999    1.8557 O   0  0  0  0  0  0  0  0  0  0  0  0
   -2.3092   -1.0496   -0.4898 O   0  0  0  0  0  0  0  0  0  0  0  0
    0.2064    2.0093   -3.2828 O   0  0  0  0  0  0  0  0  0  0  0  0
   -4.5535    1.8065   -1.1173 O   0  0  0  0  0  0  0  0  0  0  0  0
   -2.2420    2.4921   -2.5035 O   0  0  0  0  0  0  0  0  0  0  0  0
   -8.0433   -1.6648   -0.2263 O   0  0  0  0  0  0  0  0  0  0  0  0
   -7.7381   -2.1952    2.4855 O   0  0  0  0  0  0  0  0  0  0  0  0
    5.1359   -0.7515   -0.2206 C   0  0  2  0  0  0  0  0  0  0  0  0
    5.8324   -2.0732    0.1212 C   0  0  2  0  0  0  0  0  0  0  0  0
    4.8357   -3.1367    0.5755 C   0  0  1  0  0  0  0  0  0  0  0  0
    3.3406    3.4632    1.1461 C   0  0  2  0  0  0  0  0  0  0  0  0
    2.1174    3.6443    0.2378 C   0  0  2  0  0  0  0  0  0  0  0  0
    3.5240    2.0133    1.6061 C   0  0  1  0  0  0  0  0  0  0  0  0
    3.6798   -3.2524   -0.4156 C   0  0  2  0  0  0  0  0  0  0  0  0
    0.8791    2.9262    0.7865 C   0  0  1  0  0  0  0  0  0  0  0  0
    1.2127    1.4922    1.2268 C   0  0  2  0  0  0  0  0  0  0  0  0
    4.6292    0.0322    0.9915 C   0  0  0  0  0  0  0  0  0  0  0  0
    3.0821   -1.8866   -0.7516 C   0  0  1  0  0  0  0  0  0  0  0  0
    0.0435    0.7975    1.9173 C   0  0  0  0  0  0  0  0  0  0  0  0
    1.0724   -1.2207   -1.8351 C   0  0  0  0  0  0  0  0  0  0  0  0
   -0.0991   -1.5477   -1.1520 C   0  0  0  0  0  0  0  0  0  0  0  0
    1.1572   -0.0224   -2.5451 C   0  0  0  0  0  0  0  0  0  0  0  0
   -1.1862   -0.6738   -1.1806 C   0  0  0  0  0  0  0  0  0  0  0  0
    0.0713    0.8533   -2.5752 C   0  0  0  0  0  0  0  0  0  0  0  0
   -1.1003    0.5220   -1.8900 C   0  0  0  0  0  0  0  0  0  0  0  0
   -2.2604    1.4262   -1.9027 C   0  0  0  0  0  0  0  0  0  0  0  0
   -3.4097   -0.2073   -0.5083 C   0  0  0  0  0  0  0  0  0  0  0  0
   -3.4537    0.9767   -1.1459 C   0  0  0  0  0  0  0  0  0  0  0  0
   -4.5452   -0.7283    0.2733 C   0  0  0  0  0  0  0  0  0  0  0  0
   -5.7735   -0.9547   -0.3478 C   0  0  0  0  0  0  0  0  0  0  0  0
   -4.3923   -0.9946    1.6340 C   0  0  0  0  0  0  0  0  0  0  0  0
   -6.8488   -1.4475    0.3916 C   0  0  0  0  0  0  0  0  0  0  0  0
   -5.4675   -1.4873    2.3734 C   0  0  0  0  0  0  0  0  0  0  0  0
   -4.4759    2.7077   -0.0294 C   0  0  0  0  0  0  0  0  0  0  0  0
   -6.6958   -1.7137    1.7522 C   0  0  0  0  0  0  0  0  0  0  0  0
    5.8650   -0.1058   -0.7267 H   0  0  0  0  0  0  0  0  0  0  0  0
    6.3615   -2.4339   -0.7702 H   0  0  0  0  0  0  0  0  0  0  0  0
    4.4739   -2.9323    1.5895 H   0  0  0  0  0  0  0  0  0  0  0  0
    4.2373    3.7892    0.6046 H   0  0  0  0  0  0  0  0  0  0  0  0
    1.9079    4.7173    0.1448 H   0  0  0  0  0  0  0  0  0  0  0  0
    4.2532    2.0078    2.4261 H   0  0  0  0  0  0  0  0  0  0  0  0
    4.0102   -3.7579   -1.3310 H   0  0  0  0  0  0  0  0  0  0  0  0
    0.0880    2.8910    0.0286 H   0  0  0  0  0  0  0  0  0  0  0  0
    1.5078    0.9029    0.3520 H   0  0  0  0  0  0  0  0  0  0  0  0
    5.4703    0.2806    1.6493 H   0  0  0  0  0  0  0  0  0  0  0  0
    3.9022   -0.5470    1.5695 H   0  0  0  0  0  0  0  0  0  0  0  0
    2.5551   -1.4852    0.1232 H   0  0  0  0  0  0  0  0  0  0  0  0
   -0.9009    1.0174    1.4110 H   0  0  0  0  0  0  0  0  0  0  0  0
   -0.0337    1.0877    2.9701 H   0  0  0  0  0  0  0  0  0  0  0  0
    7.2128   -2.7480    1.3225 H   0  0  0  0  0  0  0  0  0  0  0  0
    5.8469   -4.6068   -0.2434 H   0  0  0  0  0  0  0  0  0  0  0  0
    4.0217    4.2164    2.8169 H   0  0  0  0  0  0  0  0  0  0  0  0
    1.6334    3.3284   -1.6280 H   0  0  0  0  0  0  0  0  0  0  0  0
    2.3402   -3.6345    0.9641 H   0  0  0  0  0  0  0  0  0  0  0  0
    0.1241    4.5587    1.5520 H   0  0  0  0  0  0  0  0  0  0  0  0
   -0.5110   -1.0256    2.2771 H   0  0  0  0  0  0  0  0  0  0  0  0
   -0.1630   -2.4817   -0.5994 H   0  0  0  0  0  0  0  0  0  0  0  0
    2.0723    0.2291   -3.0760 H   0  0  0  0  0  0  0  0  0  0  0  0
   -0.5982    2.5457   -3.2153 H   0  0  0  0  0  0  0  0  0  0  0  0
   -5.8973   -0.7566   -1.4106 H   0  0  0  0  0  0  0  0  0  0  0  0
   -3.4423   -0.8205    2.1340 H   0  0  0  0  0  0  0  0  0  0  0  0
   -5.3347   -1.6896    3.4329 H   0  0  0  0  0  0  0  0  0  0  0  0
   -5.3611    3.3502   -0.0571 H   0  0  0  0  0  0  0  0  0  0  0  0
   -3.5920    3.3507   -0.1068 H   0  0  0  0  0  0  0  0  0  0  0  0
   -4.4725    2.1841    0.9324 H   0  0  0  0  0  0  0  0  0  0  0  0
   -7.9635   -1.4244   -1.1654 H   0  0  0  0  0  0  0  0  0  0  0  0
   -7.4477   -2.3191    3.4054 H   0  0  0  0  0  0  0  0  0  0  0  0
  1 18  1  0  0  0  0
  1 28  1  0  0  0  0
  2 23  1  0  0  0  0
  2 26  1  0  0  0  0
  3 23  1  0  0  0  0
  3 27  1  0  0  0  0
  4 19  1  0  0  0  0
  4 60  1  0  0  0  0
  5 20  1  0  0  0  0
  5 61  1  0  0  0  0
  6 28  1  0  0  0  0
  6 30  1  0  0  0  0
  7 21  1  0  0  0  0
  7 62  1  0  0  0  0
  8 22  1  0  0  0  0
  8 63  1  0  0  0  0
  9 24  1  0  0  0  0
  9 64  1  0  0  0  0
 10 25  1  0  0  0  0
 10 65  1  0  0  0  0
 11 29  1  0  0  0  0
 11 66  1  0  0  0  0
 12 33  1  0  0  0  0
 12 37  1  0  0  0  0
 13 34  1  0  0  0  0
 13 69  1  0  0  0  0
 14 38  1  0  0  0  0
 14 44  1  0  0  0  0
 15 36  2  0  0  0  0
 16 42  1  0  0  0  0
 16 76  1  0  0  0  0
 17 45  1  0  0  0  0
 17 77  1  0  0  0  0
 18 19  1  0  0  0  0
 18 27  1  0  0  0  0
 18 46  1  0  0  0  0
 19 20  1  0  0  0  0
 19 47  1  0  0  0  0
 20 24  1  0  0  0  0
 20 48  1  0  0  0  0
 21 22  1  0  0  0  0
 21 23  1  0  0  0  0
 21 49  1  0  0  0  0
 22 25  1  0  0  0  0
 22 50  1  0  0  0  0
 23 51  1  0  0  0  0
 24 28  1  0  0  0  0
 24 52  1  0  0  0  0
 25 26  1  0  0  0  0
 25 53  1  0  0  0  0
 26 29  1  0  0  0  0
 26 54  1  0  0  0  0
 27 55  1  0  0  0  0
 27 56  1  0  0  0  0
 28 57  1  0  0  0  0
 29 58  1  0  0  0  0
 29 59  1  0  0  0  0
 30 31  1  0  0  0  0
 30 32  2  0  0  0  0
 31 33  2  0  0  0  0
 31 67  1  0  0  0  0
 32 34  1  0  0  0  0
 32 68  1  0  0  0  0
 33 35  1  0  0  0  0
 34 35  2  0  0  0  0
 35 36  1  0  0  0  0
 36 38  1  0  0  0  0
 37 38  2  0  0  0  0
 37 39  1  0  0  0  0
 39 40  2  0  0  0  0
 39 41  1  0  0  0  0
 40 42  1  0  0  0  0
 40 70  1  0  0  0  0
 41 43  2  0  0  0  0
 41 71  1  0  0  0  0
 42 45  2  0  0  0  0
 43 45  1  0  0  0  0
 43 72  1  0  0  0  0
 44 73  1  0  0  0  0
 44 74  1  0  0  0  0
 44 75  1  0  0  0  0
M  END
> <PUBCHEM_COMPOUND_CID>
44259671

> <PUBCHEM_CONFORMER_RMSD>
1.6

> <PUBCHEM_CONFORMER_DIVERSEORDER>
1
24
100
22
72
80
11
78
49
23
75
54
74
83
71
53
76
33
48
32
14
60
36
87
84
110
21
98
28
18
47
61
67
88
65
34
27
7
104
38
66
112
52
99
119
5
39
81
115
118
58
64
55
120
6
10
103
93
79
13
113
111
29
44
77
19
15
106
8
59
9
94
26
56
105
4
35
43
40
45
116
85
20
50
117
63
31
109
70
82
69
16
86
2
96
91
3
73
121
102
41
89
68
30
42
37
95
12
57
97
51
108
17
62
114
90
92
46
101
107
25

> <PUBCHEM_MMFF94_PARTIAL_CHARGES>
60
1 -0.56
10 -0.68
11 -0.68
12 -0.16
13 -0.53
14 -0.36
15 -0.57
16 -0.53
17 -0.53
18 0.28
19 0.28
2 -0.56
20 0.28
21 0.28
22 0.28
23 0.56
24 0.28
25 0.28
26 0.28
27 0.28
28 0.56
29 0.28
3 -0.56
30 0.08
31 -0.15
32 -0.15
33 0.08
34 0.08
35 0.09
36 0.47
37 0.05
38 0.09
39 0.03
4 -0.68
40 -0.15
41 -0.15
42 0.08
43 -0.15
44 0.28
45 0.08
5 -0.68
6 -0.36
60 0.4
61 0.4
62 0.4
63 0.4
64 0.4
65 0.4
66 0.4
67 0.15
68 0.15
69 0.45
7 -0.68
70 0.15
71 0.15
72 0.15
76 0.45
77 0.45
8 -0.68
9 -0.68

> <PUBCHEM_EFFECTIVE_ROTOR_COUNT>
10.4

> <PUBCHEM_PHARMACOPHORE_FEATURES>
29
1 1 acceptor
1 10 acceptor
1 10 donor
1 11 acceptor
1 11 donor
1 12 acceptor
1 13 donor
1 14 acceptor
1 15 acceptor
1 16 donor
1 17 donor
1 2 acceptor
1 3 acceptor
1 4 acceptor
1 4 donor
1 5 acceptor
1 5 donor
1 6 acceptor
1 7 acceptor
1 7 donor
1 8 acceptor
1 8 donor
1 9 acceptor
1 9 donor
6 1 18 19 20 24 28 rings
6 12 33 35 36 37 38 rings
6 2 21 22 23 25 26 rings
6 30 31 32 33 34 35 rings
6 39 40 41 42 43 45 rings

> <PUBCHEM_HEAVY_ATOM_COUNT>
45

> <PUBCHEM_ATOM_DEF_STEREO_COUNT>
6

> <PUBCHEM_ATOM_UDEF_STEREO_COUNT>
4

> <PUBCHEM_BOND_DEF_STEREO_COUNT>
0

> <PUBCHEM_BOND_UDEF_STEREO_COUNT>
0

> <PUBCHEM_ISOTOPIC_ATOM_COUNT>
0

> <PUBCHEM_COMPONENT_COUNT>
1

> <PUBCHEM_CACTVS_TAUTO_COUNT>
68

> <PUBCHEM_CONFORMER_ID>
02A3595700000001

> <PUBCHEM_MMFF94_ENERGY>
149.2719

> <PUBCHEM_FEATURE_SELFOVERLAP>
147.359

> <PUBCHEM_SHAPE_FINGERPRINT>
10675989 125 17701823412936966160
11399939 17 17831018296747932495
11445158 3 18201715150185677383
11578080 2 18060150830310633897
11607047 403 17900273188391242645
11828532 37 16806179885366387755
12522641 24 18271812358421059435
12758862 65 18336555962014100787
13782708 43 18334010562636185099
13947947 140 18045787775639529283
14068700 675 15430577563846643069
14840074 17 17203032020622613054
15064986 96 18264746878983473225
15082195 135 10665216055967518238
15781502 13 17603589612600770130
15840311 113 15123243087236310971
16096371 109 18194683898413428709
17138139 8 14201694094931642778
19315092 285 18201727297166040875
19319366 153 17842834696740872288
20609170 17 18188784846246857699
22122407 14 17702655545649272177
22223350 30 18118701039237911947
23559900 14 17821736061511039255
392239 28 18131631192694951471
4112364 45 15697994171856864939
46194498 28 18113614633906824004
513532 50 16806455888322485260
5951187 136 14261069952009257698
6009941 240 18117835504030881437
86090 222 18040716991098995770

> <PUBCHEM_SHAPE_MULTIPOLES>
826.3
16.03
4.96
2.74
19.91
1.53
0.65
-14.55
-8.69
-6.95
-1.79
1.23
1.14
3.46

> <PUBCHEM_SHAPE_SELFOVERLAP>
1793.756

> <PUBCHEM_SHAPE_VOLUME>
445.7

> <PUBCHEM_COORDINATE_TYPE>
2
5
10

$$$$
