6450230
  -OEChem-02172602263D

 48 49  0     1  0  0  0  0  0999 V2000
    5.1073   -1.6928    1.8547 O   0  0  0  0  0  0  0  0  0  0  0  0
    3.9400   -0.9749   -1.5511 O   0  0  0  0  0  0  0  0  0  0  0  0
   -0.6203    1.7204   -1.1162 O   0  0  0  0  0  0  0  0  0  0  0  0
   -4.2192   -1.4217   -0.8626 O   0  0  0  0  0  0  0  0  0  0  0  0
   -5.9484   -2.9171   -0.7259 O   0  0  0  0  0  0  0  0  0  0  0  0
    4.9300   -1.9586    0.4592 C   0  0  0  0  0  0  0  0  0  0  0  0
    4.1805   -0.7528   -0.1632 C   0  0  1  0  0  0  0  0  0  0  0  0
    4.9314    0.5847   -0.0162 C   0  0  0  0  0  0  0  0  0  0  0  0
    4.1986    1.7865   -0.6387 C   0  0  0  0  0  0  0  0  0  0  0  0
    6.3103   -2.1915   -0.1652 C   0  0  0  0  0  0  0  0  0  0  0  0
    4.0968   -3.2424    0.3393 C   0  0  0  0  0  0  0  0  0  0  0  0
    2.8250    2.0503   -0.0606 C   0  0  0  0  0  0  0  0  0  0  0  0
    1.6871    2.1308   -0.7782 C   0  0  0  0  0  0  0  0  0  0  0  0
    2.7869    2.2629    1.4317 C   0  0  0  0  0  0  0  0  0  0  0  0
    0.3032    2.4172   -0.2886 C   0  0  0  0  0  0  0  0  0  0  0  0
   -1.7822    1.2987   -0.5251 C   0  0  0  0  0  0  0  0  0  0  0  0
   -4.1493    0.4515    0.6899 C   0  0  0  0  0  0  0  0  0  0  0  0
   -3.5950   -0.2562   -0.3734 C   0  0  0  0  0  0  0  0  0  0  0  0
   -2.4146    0.1531   -0.9903 C   0  0  0  0  0  0  0  0  0  0  0  0
   -2.3164    2.0240    0.5369 C   0  0  0  0  0  0  0  0  0  0  0  0
   -3.5014    1.6013    1.1464 C   0  0  0  0  0  0  0  0  0  0  0  0
   -5.3827   -0.0321    1.2864 C   0  0  0  0  0  0  0  0  0  0  0  0
   -5.9677   -1.1372    0.8176 C   0  0  0  0  0  0  0  0  0  0  0  0
   -5.3998   -1.9039   -0.3069 C   0  0  0  0  0  0  0  0  0  0  0  0
    3.2056   -0.6537    0.3299 H   0  0  0  0  0  0  0  0  0  0  0  0
    5.8989    0.5200   -0.5282 H   0  0  0  0  0  0  0  0  0  0  0  0
    5.1439    0.7846    1.0403 H   0  0  0  0  0  0  0  0  0  0  0  0
    4.1292    1.6449   -1.7244 H   0  0  0  0  0  0  0  0  0  0  0  0
    4.8133    2.6837   -0.4921 H   0  0  0  0  0  0  0  0  0  0  0  0
    6.9902   -1.3584    0.0405 H   0  0  0  0  0  0  0  0  0  0  0  0
    6.7862   -3.0755    0.2758 H   0  0  0  0  0  0  0  0  0  0  0  0
    6.2497   -2.3414   -1.2475 H   0  0  0  0  0  0  0  0  0  0  0  0
    3.0974   -3.1010    0.7665 H   0  0  0  0  0  0  0  0  0  0  0  0
    4.5599   -4.0584    0.9064 H   0  0  0  0  0  0  0  0  0  0  0  0
    3.9879   -3.5681   -0.6999 H   0  0  0  0  0  0  0  0  0  0  0  0
    4.2280   -1.5653    2.2504 H   0  0  0  0  0  0  0  0  0  0  0  0
    3.2721   -1.6766   -1.6286 H   0  0  0  0  0  0  0  0  0  0  0  0
    1.7760    2.0057   -1.8571 H   0  0  0  0  0  0  0  0  0  0  0  0
    3.6745    2.8182    1.7560 H   0  0  0  0  0  0  0  0  0  0  0  0
    2.7751    1.3022    1.9561 H   0  0  0  0  0  0  0  0  0  0  0  0
    1.9306    2.8538    1.7676 H   0  0  0  0  0  0  0  0  0  0  0  0
    0.2157    2.0931    0.7537 H   0  0  0  0  0  0  0  0  0  0  0  0
    0.1053    3.4915   -0.3692 H   0  0  0  0  0  0  0  0  0  0  0  0
   -1.9977   -0.4125   -1.8181 H   0  0  0  0  0  0  0  0  0  0  0  0
   -1.8649    2.9413    0.9029 H   0  0  0  0  0  0  0  0  0  0  0  0
   -3.9105    2.1816    1.9697 H   0  0  0  0  0  0  0  0  0  0  0  0
   -5.8177    0.5163    2.1145 H   0  0  0  0  0  0  0  0  0  0  0  0
   -6.8884   -1.5044    1.2578 H   0  0  0  0  0  0  0  0  0  0  0  0
  1  6  1  0  0  0  0
  1 36  1  0  0  0  0
  2  7  1  0  0  0  0
  2 37  1  0  0  0  0
  3 15  1  0  0  0  0
  3 16  1  0  0  0  0
  4 18  1  0  0  0  0
  4 24  1  0  0  0  0
  5 24  2  0  0  0  0
  6  7  1  0  0  0  0
  6 10  1  0  0  0  0
  6 11  1  0  0  0  0
  7  8  1  0  0  0  0
  7 25  1  0  0  0  0
  8  9  1  0  0  0  0
  8 26  1  0  0  0  0
  8 27  1  0  0  0  0
  9 12  1  0  0  0  0
  9 28  1  0  0  0  0
  9 29  1  0  0  0  0
 10 30  1  0  0  0  0
 10 31  1  0  0  0  0
 10 32  1  0  0  0  0
 11 33  1  0  0  0  0
 11 34  1  0  0  0  0
 11 35  1  0  0  0  0
 12 13  2  0  0  0  0
 12 14  1  0  0  0  0
 13 15  1  0  0  0  0
 13 38  1  0  0  0  0
 14 39  1  0  0  0  0
 14 40  1  0  0  0  0
 14 41  1  0  0  0  0
 15 42  1  0  0  0  0
 15 43  1  0  0  0  0
 16 19  2  0  0  0  0
 16 20  1  0  0  0  0
 17 18  2  0  0  0  0
 17 21  1  0  0  0  0
 17 22  1  0  0  0  0
 18 19  1  0  0  0  0
 19 44  1  0  0  0  0
 20 21  2  0  0  0  0
 20 45  1  0  0  0  0
 21 46  1  0  0  0  0
 22 23  2  0  0  0  0
 22 47  1  0  0  0  0
 23 24  1  0  0  0  0
 23 48  1  0  0  0  0
M  END
> <PUBCHEM_COMPOUND_CID>
6450230

> <PUBCHEM_CONFORMER_RMSD>
1

> <PUBCHEM_CONFORMER_DIVERSEORDER>
3
185
270
102
230
333
186
45
342
287
150
215
147
294
352
322
39
151
172
214
307
15
323
94
31
26
12
122
200
308
278
2
319
195
289
183
341
179
229
169
296
11
19
20
41
305
175
252
44
112
190
315
291
8
295
258
10
313
188
356
58
157
7
92
70
145
265
345
326
266
302
293
153
353
286
52
192
206
85
4
35
36
167
140
216
154
86
335
133
166
32
193
28
174
37
201
137
55
42
228
148
138
88
282
191
82
199
168
331
120
223
73
277
347
240
91
211
1
123
22
142
43
279
16
78
100
61
271
338
152
131
106
351
107
113
327
204
194
243
222
267
124
40
247
321
144
111
218
244
99
310
233
161
202
34
300
117
105
128
303
224
46
29
72
53
24
306
350
33
187
316
217
189
60
6
130
149
23
65
348
71
9
264
250
320
119
285
160
143
284
324
232
18
251
274
156
50
257
248
121
30
269
118
176
234
263
98
81
301
116
346
95
343
332
136
281
114
290
163
182
54
77
97
276
103
184
66
87
273
354
309
5
272
27
62
14
13
262
158
241
261
198
318
226
93
79
219
181
355
68
280
259
329
110
339
48
38
63
164
197
304
129
208
344
312
132
51
74
115
25
139
21
146
275
337
260
17
297
330
56
126
242
239
127
288
236
57
80
135
221
268
205
159
89
47
328
292
212
358
349
196
283
246
49
220
96
299
178
59
245
141
90
180
340
255
165
170
67
155
75
249
298
162
238
253
235
256
207
76
101
237
69
227
336
173
104
225
210
177
84
209
134
109
203
314
108
334
125
83
254
311
231
359
64
213
317
171
325
357

> <PUBCHEM_MMFF94_PARTIAL_CHARGES>
29
1 -0.68
12 -0.28
13 -0.29
14 0.14
15 0.42
16 0.08
17 0.03
18 0.08
19 -0.15
2 -0.68
20 -0.15
21 -0.15
22 -0.18
23 -0.14
24 0.71
3 -0.36
36 0.4
37 0.4
38 0.15
4 -0.23
44 0.15
45 0.15
46 0.15
47 0.15
48 0.15
5 -0.57
6 0.28
7 0.28
9 0.14

> <PUBCHEM_EFFECTIVE_ROTOR_COUNT>
7

> <PUBCHEM_PHARMACOPHORE_FEATURES>
10
1 1 acceptor
1 1 donor
1 14 hydrophobe
1 2 acceptor
1 2 donor
1 3 acceptor
1 5 acceptor
3 6 10 11 hydrophobe
6 16 17 18 19 20 21 rings
6 4 17 18 22 23 24 rings

> <PUBCHEM_HEAVY_ATOM_COUNT>
24

> <PUBCHEM_ATOM_DEF_STEREO_COUNT>
1

> <PUBCHEM_ATOM_UDEF_STEREO_COUNT>
0

> <PUBCHEM_BOND_DEF_STEREO_COUNT>
1

> <PUBCHEM_BOND_UDEF_STEREO_COUNT>
0

> <PUBCHEM_ISOTOPIC_ATOM_COUNT>
0

> <PUBCHEM_COMPONENT_COUNT>
1

> <PUBCHEM_CACTVS_TAUTO_COUNT>
1

> <PUBCHEM_CONFORMER_ID>
00626C3600000003

> <PUBCHEM_MMFF94_ENERGY>
73.1617

> <PUBCHEM_FEATURE_SELFOVERLAP>
50.774

> <PUBCHEM_SHAPE_FINGERPRINT>
10074138 170 17200526121543086073
10319926 262 17346050986720547817
10571361 74 18199180883707242247
10928967 22 18187926127791625978
11796584 16 17972593287205331828
12107183 9 18196946474099911929
12422481 6 17846506902542271471
12596602 18 17560527291112144072
12633257 1 16343702183499552285
12839892 36 17704080620414319191
13103583 49 18130235839272151728
13383661 66 17173235453004923907
13533116 47 18339644550242131761
13551218 46 18410295830643370277
13911852 28 18408602543707642109
13914758 101 18412542107857535557
13955234 65 18267022937432296896
14211702 104 18265622163897237435
14251740 57 18411415116448276856
14251751 18 18273210881018170266
14251764 30 18341050697276741258
14347332 77 18408321077663848209
14420673 8 18198349450614297358
15475509 35 18271804670134356696
15537594 2 18413112783855515172
15840311 113 9655037571275683395
16728300 4 18271526503031946599
17857418 61 18412546522128847749
1813 80 17822015332236260133
1979834 28 17203336580753050438
19841028 212 18337103588209843011
20028762 73 18413107243179651422
20567600 247 18335140886669929504
22849339 104 14996578338409946785
23522609 53 18049197486025516900
25222932 49 18409729548228221182
2748736 6 10015573983331588594
2838139 119 9007061253194394008
312425 54 18202289130053126961
314194 84 18335148638601063177
345986 75 18060142024493521272
373842 8 18265617769929896547
3886686 26 17553498980758594433
439807 62 18040437650804939170
44062 13 17969778579697113876
46194498 28 17168144598151436428
474113 269 18059564816108241271
5104073 3 17989211460060180073
7970288 3 18337670935760713203

> <PUBCHEM_SHAPE_MULTIPOLES>
464.56
17.32
3.64
1.28
2.01
1.21
0.23
14.74
2.43
-2.58
0.06
-0.07
-0.05
-1.47

> <PUBCHEM_SHAPE_SELFOVERLAP>
963.453

> <PUBCHEM_SHAPE_VOLUME>
265.6

> <PUBCHEM_COORDINATE_TYPE>
2
5
10

$$$$
