12921504
  -OEChem-02172602523D

 18 18  0     0  0  0  0  0  0999 V2000
    1.1442    1.9962    0.0369 O   0  0  0  0  0  0  0  0  0  0  0  0
   -0.1243    0.0003   -0.0141 N   0  0  0  0  0  0  0  0  0  0  0  0
    0.2529   -1.3381    0.0068 N   0  0  0  0  0  0  0  0  0  0  0  0
    1.6235   -1.4029   -0.0400 N   0  0  0  0  0  0  0  0  0  0  0  0
   -1.5146    0.3853    0.0127 C   0  0  0  0  0  0  0  0  0  0  0  0
   -2.1960   -0.1778    1.2531 C   0  0  0  0  0  0  0  0  0  0  0  0
   -2.2199   -0.0693   -1.2590 C   0  0  0  0  0  0  0  0  0  0  0  0
    0.9664    0.8015    0.0109 C   0  0  0  0  0  0  0  0  0  0  0  0
    2.0678   -0.1950   -0.0073 C   0  0  0  0  0  0  0  0  0  0  0  0
   -1.5545    1.4804    0.0594 H   0  0  0  0  0  0  0  0  0  0  0  0
   -3.2296    0.1784    1.3198 H   0  0  0  0  0  0  0  0  0  0  0  0
   -2.2222   -1.2732    1.2474 H   0  0  0  0  0  0  0  0  0  0  0  0
   -1.6733    0.1373    2.1630 H   0  0  0  0  0  0  0  0  0  0  0  0
   -1.7059    0.3123   -2.1482 H   0  0  0  0  0  0  0  0  0  0  0  0
   -3.2502    0.3018   -1.2810 H   0  0  0  0  0  0  0  0  0  0  0  0
   -2.2594   -1.1609   -1.3407 H   0  0  0  0  0  0  0  0  0  0  0  0
   -0.1260   -1.8050   -0.8157 H   0  0  0  0  0  0  0  0  0  0  0  0
    3.1116    0.1461   -0.0100 H   0  0  0  0  0  0  0  0  0  0  0  0
  1  8  2  0  0  0  0
  2  3  1  0  0  0  0
  2  5  1  0  0  0  0
  2  8  1  0  0  0  0
  3  4  1  0  0  0  0
  3 17  1  0  0  0  0
  4  9  2  0  0  0  0
  5  6  1  0  0  0  0
  5  7  1  0  0  0  0
  5 10  1  0  0  0  0
  6 11  1  0  0  0  0
  6 12  1  0  0  0  0
  6 13  1  0  0  0  0
  7 14  1  0  0  0  0
  7 15  1  0  0  0  0
  7 16  1  0  0  0  0
  8  9  1  0  0  0  0
  9 18  1  0  0  0  0
M  END
> <PUBCHEM_COMPOUND_CID>
12921504

> <PUBCHEM_CONFORMER_RMSD>
0.4

> <PUBCHEM_CONFORMER_DIVERSEORDER>
1
2
3
4

> <PUBCHEM_MMFF94_PARTIAL_CHARGES>
9
1 -0.57
17 0.36
18 0.06
2 -0.35
3 -0.32
4 -0.5
5 0.3
8 0.63
9 0.39

> <PUBCHEM_EFFECTIVE_ROTOR_COUNT>
1

> <PUBCHEM_PHARMACOPHORE_FEATURES>
4
1 1 acceptor
1 4 acceptor
3 5 6 7 hydrophobe
5 2 3 4 8 9 rings

> <PUBCHEM_HEAVY_ATOM_COUNT>
9

> <PUBCHEM_ATOM_DEF_STEREO_COUNT>
0

> <PUBCHEM_ATOM_UDEF_STEREO_COUNT>
0

> <PUBCHEM_BOND_DEF_STEREO_COUNT>
0

> <PUBCHEM_BOND_UDEF_STEREO_COUNT>
0

> <PUBCHEM_ISOTOPIC_ATOM_COUNT>
0

> <PUBCHEM_COMPONENT_COUNT>
1

> <PUBCHEM_CACTVS_TAUTO_COUNT>
1

> <PUBCHEM_CONFORMER_ID>
00C52AA000000001

> <PUBCHEM_MMFF94_ENERGY>
13.4863

> <PUBCHEM_FEATURE_SELFOVERLAP>
20.297

> <PUBCHEM_SHAPE_FINGERPRINT>
12932741 1 17749387083320689015
18185500 45 18130781227003468399
21040471 1 18122625226006010272
24536 1 18186518804421026689
29004967 10 18335990761502142410
5084963 1 18130497625996827701

> <PUBCHEM_SHAPE_MULTIPOLES>
164.4
3.1
1.4
0.97
0.76
0.28
0
-0.2
0.03
-0.85
-0.02
0.87
-0.05
0.07

> <PUBCHEM_SHAPE_SELFOVERLAP>
327.123

> <PUBCHEM_SHAPE_VOLUME>
99.5

> <PUBCHEM_COORDINATE_TYPE>
2
5
10

$$$$
