16655647
  -OEChem-02172602273D

 31 32  0     1  0  0  0  0  0999 V2000
    0.5678   -1.0223   -0.1495 O   0  0  0  0  0  0  0  0  0  0  0  0
   -2.9951   -0.7266    0.1291 O   0  0  0  0  0  0  0  0  0  0  0  0
    2.0962    2.3451    0.2039 O   0  0  0  0  0  0  0  0  0  0  0  0
   -0.7276    2.8359   -0.6988 O   0  0  0  0  0  0  0  0  0  0  0  0
   -1.7100   -2.5059    1.0057 O   0  0  0  0  0  0  0  0  0  0  0  0
   -3.3392    1.5333    0.4154 O   0  0  0  0  0  0  0  0  0  0  0  0
    1.1528    1.3970   -0.2955 C   0  0  2  0  0  0  0  0  0  0  0  0
   -0.2527    1.8153    0.1740 C   0  0  2  0  0  0  0  0  0  0  0  0
    1.5232   -0.0096    0.2251 C   0  0  2  0  0  0  0  0  0  0  0  0
   -1.1436    0.6379    0.1381 C   0  0  0  0  0  0  0  0  0  0  0  0
   -0.7317   -0.6147   -0.0240 C   0  0  0  0  0  0  0  0  0  0  0  0
   -1.8482   -1.5784   -0.0623 C   0  0  2  0  0  0  0  0  0  0  0  0
   -2.5995    0.5797    0.2470 C   0  0  0  0  0  0  0  0  0  0  0  0
   -1.9756   -2.2993   -1.3985 C   0  0  0  0  0  0  0  0  0  0  0  0
    2.8520   -0.4467   -0.3084 C   0  0  0  0  0  0  0  0  0  0  0  0
    3.9031   -0.7520    0.4654 C   0  0  0  0  0  0  0  0  0  0  0  0
    5.2280   -1.1887   -0.0666 C   0  0  0  0  0  0  0  0  0  0  0  0
    1.2036    1.4300   -1.3918 H   0  0  0  0  0  0  0  0  0  0  0  0
   -0.2174    2.2358    1.1856 H   0  0  0  0  0  0  0  0  0  0  0  0
    1.5644    0.0116    1.3239 H   0  0  0  0  0  0  0  0  0  0  0  0
   -2.8762   -2.9244   -1.4085 H   0  0  0  0  0  0  0  0  0  0  0  0
   -2.0673   -1.5945   -2.2325 H   0  0  0  0  0  0  0  0  0  0  0  0
   -1.1208   -2.9595   -1.5802 H   0  0  0  0  0  0  0  0  0  0  0  0
    2.9486   -0.5234   -1.3891 H   0  0  0  0  0  0  0  0  0  0  0  0
    2.0816    2.3010    1.1752 H   0  0  0  0  0  0  0  0  0  0  0  0
   -1.5910    3.1336   -0.3644 H   0  0  0  0  0  0  0  0  0  0  0  0
   -2.2222   -3.3021    0.7857 H   0  0  0  0  0  0  0  0  0  0  0  0
    3.8137   -0.6826    1.5462 H   0  0  0  0  0  0  0  0  0  0  0  0
    5.4740   -2.1832    0.3176 H   0  0  0  0  0  0  0  0  0  0  0  0
    5.2427   -1.2321   -1.1602 H   0  0  0  0  0  0  0  0  0  0  0  0
    6.0072   -0.4921    0.2576 H   0  0  0  0  0  0  0  0  0  0  0  0
  1  9  1  0  0  0  0
  1 11  1  0  0  0  0
  2 12  1  0  0  0  0
  2 13  1  0  0  0  0
  3  7  1  0  0  0  0
  3 25  1  0  0  0  0
  4  8  1  0  0  0  0
  4 26  1  0  0  0  0
  5 12  1  0  0  0  0
  5 27  1  0  0  0  0
  6 13  2  0  0  0  0
  7  8  1  0  0  0  0
  7  9  1  0  0  0  0
  7 18  1  0  0  0  0
  8 10  1  0  0  0  0
  8 19  1  0  0  0  0
  9 15  1  0  0  0  0
  9 20  1  0  0  0  0
 10 11  2  0  0  0  0
 10 13  1  0  0  0  0
 11 12  1  0  0  0  0
 12 14  1  0  0  0  0
 14 21  1  0  0  0  0
 14 22  1  0  0  0  0
 14 23  1  0  0  0  0
 15 16  2  0  0  0  0
 15 24  1  0  0  0  0
 16 17  1  0  0  0  0
 16 28  1  0  0  0  0
 17 29  1  0  0  0  0
 17 30  1  0  0  0  0
 17 31  1  0  0  0  0
M  END
> <PUBCHEM_COMPOUND_CID>
16655647

> <PUBCHEM_CONFORMER_RMSD>
0.6

> <PUBCHEM_CONFORMER_DIVERSEORDER>
1
2
3

> <PUBCHEM_MMFF94_PARTIAL_CHARGES>
21
1 -0.36
10 -0.12
11 -0.06
12 0.7
13 0.71
15 -0.29
16 -0.29
17 0.14
2 -0.43
24 0.15
25 0.4
26 0.4
27 0.4
28 0.15
3 -0.68
4 -0.68
5 -0.68
6 -0.57
7 0.28
8 0.42
9 0.42

> <PUBCHEM_EFFECTIVE_ROTOR_COUNT>
2.2

> <PUBCHEM_PHARMACOPHORE_FEATURES>
11
1 1 acceptor
1 17 hydrophobe
1 3 acceptor
1 3 donor
1 4 acceptor
1 4 donor
1 5 acceptor
1 5 donor
1 6 acceptor
5 2 10 11 12 13 rings
6 1 7 8 9 10 11 rings

> <PUBCHEM_HEAVY_ATOM_COUNT>
17

> <PUBCHEM_ATOM_DEF_STEREO_COUNT>
4

> <PUBCHEM_ATOM_UDEF_STEREO_COUNT>
0

> <PUBCHEM_BOND_DEF_STEREO_COUNT>
1

> <PUBCHEM_BOND_UDEF_STEREO_COUNT>
0

> <PUBCHEM_ISOTOPIC_ATOM_COUNT>
0

> <PUBCHEM_COMPONENT_COUNT>
1

> <PUBCHEM_CACTVS_TAUTO_COUNT>
1

> <PUBCHEM_CONFORMER_ID>
00FE251F00000001

> <PUBCHEM_MMFF94_ENERGY>
21.9304

> <PUBCHEM_FEATURE_SELFOVERLAP>
55.917

> <PUBCHEM_SHAPE_FINGERPRINT>
10062212 137 18409165515410297310
10967382 1 18194403294723670283
10989021 7 18339357590713171926
11132069 177 18341891862220771778
11680986 33 18193554695380790849
12553582 1 18334285453654546778
13140716 1 18411706520867311904
14115302 16 17967825941703827310
14965852 173 18412544348864833434
15042514 8 18409736136090997843
15099037 51 18337670806742928429
15279308 51 18270961374664370871
15375462 189 18040996203017824538
15442244 35 18411982494133405832
15536298 74 18270680982510236928
16945 1 18337104566707336677
17804303 29 18413110537439873768
19141452 34 18202282476800722718
20510252 161 18054788378071637488
21267235 1 18410583889351765274
21501502 16 18340770467392010532
21524375 3 18339645525816613417
232386 152 18409736166345296390
2334 1 18194684993096832500
23366157 5 18042122232111756820
23388829 49 17693931199897228517
23402539 116 18272360950267064375
23419403 2 16684493660660268665
23463225 33 18410295856202385356
23552423 10 17833553779388473005
23557571 272 18200039418078616500
23559900 14 18341330008074893474
2748010 2 18267302208404144428
335352 9 18338798905546484724
34934 24 18337104554075713954
43471831 8 17690278635313212832
5104073 3 18411981382190310888
559249 180 17829324688860606482
6992083 37 18342751718752211457
7364860 26 18198341960634808544
81228 2 18339091375892479112
8809292 202 18407762529993694842

> <PUBCHEM_SHAPE_MULTIPOLES>
314.64
6.49
2.76
0.83
8.32
0.58
-0.1
-2.49
0.46
-1.31
-0.35
-0.28
-0.32
-0.24

> <PUBCHEM_SHAPE_SELFOVERLAP>
666.211

> <PUBCHEM_SHAPE_VOLUME>
176.8

> <PUBCHEM_COORDINATE_TYPE>
2
5
10

$$$$
