3083923
  -OEChem-02172602323D

 42 44  0     1  0  0  0  0  0999 V2000
    0.9969    2.4016    0.1394 O   0  0  0  0  0  0  0  0  0  0  0  0
   -2.8734   -0.2186   -0.1755 O   0  0  0  0  0  0  0  0  0  0  0  0
   -0.1421    4.3558    0.4960 O   0  0  0  0  0  0  0  0  0  0  0  0
    3.1938   -2.8445    0.7116 O   0  0  0  0  0  0  0  0  0  0  0  0
   -3.4591   -2.1474    0.9530 O   0  0  0  0  0  0  0  0  0  0  0  0
   -0.7730    0.9571   -0.1911 C   0  0  2  0  0  0  0  0  0  0  0  0
    0.6850    1.0064    0.2598 C   0  0  1  0  0  0  0  0  0  0  0  0
    1.6213    0.1234   -0.5824 C   0  0  2  0  0  0  0  0  0  0  0  0
   -1.3242    2.2191    0.4807 C   0  0  1  0  0  0  0  0  0  0  0  0
   -1.4886   -0.3541    0.1436 C   0  0  2  0  0  0  0  0  0  0  0  0
    1.4925   -1.3349   -0.1782 C   0  0  0  0  0  0  0  0  0  0  0  0
   -0.9431   -1.5345   -0.6737 C   0  0  0  0  0  0  0  0  0  0  0  0
    0.3786   -2.0914   -0.1881 C   0  0  0  0  0  0  0  0  0  0  0  0
    3.0943    0.4047   -0.3796 C   0  0  0  0  0  0  0  0  0  0  0  0
   -0.1295    3.1403    0.3790 C   0  0  0  0  0  0  0  0  0  0  0  0
   -2.5348    2.8295   -0.2091 C   0  0  0  0  0  0  0  0  0  0  0  0
    2.8524   -1.7627    0.2722 C   0  0  0  0  0  0  0  0  0  0  0  0
    3.7811   -0.6378    0.0990 C   0  0  0  0  0  0  0  0  0  0  0  0
    0.2864   -3.5334    0.2389 C   0  0  0  0  0  0  0  0  0  0  0  0
    3.7231    1.6967   -0.7791 C   0  0  0  0  0  0  0  0  0  0  0  0
   -3.6476   -1.3149    0.0763 C   0  0  0  0  0  0  0  0  0  0  0  0
   -4.7900   -1.3604   -0.8926 C   0  0  0  0  0  0  0  0  0  0  0  0
   -0.8247    1.1204   -1.2787 H   0  0  0  0  0  0  0  0  0  0  0  0
    0.7823    0.7493    1.3249 H   0  0  0  0  0  0  0  0  0  0  0  0
    1.4069    0.2390   -1.6529 H   0  0  0  0  0  0  0  0  0  0  0  0
   -1.5289    2.0464    1.5437 H   0  0  0  0  0  0  0  0  0  0  0  0
   -1.4027   -0.5517    1.2205 H   0  0  0  0  0  0  0  0  0  0  0  0
   -0.8324   -1.2302   -1.7248 H   0  0  0  0  0  0  0  0  0  0  0  0
   -1.6561   -2.3631   -0.7388 H   0  0  0  0  0  0  0  0  0  0  0  0
   -2.7849    3.7989    0.2362 H   0  0  0  0  0  0  0  0  0  0  0  0
   -2.3449    3.0026   -1.2742 H   0  0  0  0  0  0  0  0  0  0  0  0
   -3.4180    2.1927   -0.1167 H   0  0  0  0  0  0  0  0  0  0  0  0
    4.8381   -0.6914    0.3012 H   0  0  0  0  0  0  0  0  0  0  0  0
   -0.0140   -4.1560   -0.6109 H   0  0  0  0  0  0  0  0  0  0  0  0
   -0.4686   -3.6395    1.0261 H   0  0  0  0  0  0  0  0  0  0  0  0
    1.2108   -3.9527    0.6325 H   0  0  0  0  0  0  0  0  0  0  0  0
    3.4920    2.4867   -0.0597 H   0  0  0  0  0  0  0  0  0  0  0  0
    3.3709    2.0043   -1.7687 H   0  0  0  0  0  0  0  0  0  0  0  0
    4.8141    1.6114   -0.8318 H   0  0  0  0  0  0  0  0  0  0  0  0
   -4.4067   -1.4409   -1.9128 H   0  0  0  0  0  0  0  0  0  0  0  0
   -5.4057   -0.4644   -0.7818 H   0  0  0  0  0  0  0  0  0  0  0  0
   -5.4092   -2.2372   -0.6825 H   0  0  0  0  0  0  0  0  0  0  0  0
  1  7  1  0  0  0  0
  1 15  1  0  0  0  0
  2 10  1  0  0  0  0
  2 21  1  0  0  0  0
  3 15  2  0  0  0  0
  4 17  2  0  0  0  0
  5 21  2  0  0  0  0
  6  7  1  0  0  0  0
  6  9  1  0  0  0  0
  6 10  1  0  0  0  0
  6 23  1  0  0  0  0
  7  8  1  0  0  0  0
  7 24  1  0  0  0  0
  8 11  1  0  0  0  0
  8 14  1  0  0  0  0
  8 25  1  0  0  0  0
  9 15  1  0  0  0  0
  9 16  1  0  0  0  0
  9 26  1  0  0  0  0
 10 12  1  0  0  0  0
 10 27  1  0  0  0  0
 11 13  2  0  0  0  0
 11 17  1  0  0  0  0
 12 13  1  0  0  0  0
 12 28  1  0  0  0  0
 12 29  1  0  0  0  0
 13 19  1  0  0  0  0
 14 18  2  0  0  0  0
 14 20  1  0  0  0  0
 16 30  1  0  0  0  0
 16 31  1  0  0  0  0
 16 32  1  0  0  0  0
 17 18  1  0  0  0  0
 18 33  1  0  0  0  0
 19 34  1  0  0  0  0
 19 35  1  0  0  0  0
 19 36  1  0  0  0  0
 20 37  1  0  0  0  0
 20 38  1  0  0  0  0
 20 39  1  0  0  0  0
 21 22  1  0  0  0  0
 22 40  1  0  0  0  0
 22 41  1  0  0  0  0
 22 42  1  0  0  0  0
M  END
> <PUBCHEM_COMPOUND_CID>
3083923

> <PUBCHEM_CONFORMER_RMSD>
0.6

> <PUBCHEM_CONFORMER_DIVERSEORDER>
1
3
2
4

> <PUBCHEM_MMFF94_PARTIAL_CHARGES>
21
1 -0.43
10 0.28
11 -0.12
12 0.14
13 -0.28
14 -0.28
15 0.66
17 0.54
18 -0.14
19 0.14
2 -0.43
20 0.14
21 0.66
22 0.06
3 -0.57
33 0.15
4 -0.57
5 -0.57
7 0.28
8 0.28
9 0.06

> <PUBCHEM_EFFECTIVE_ROTOR_COUNT>
2.8

> <PUBCHEM_PHARMACOPHORE_FEATURES>
6
1 3 acceptor
1 4 acceptor
1 5 acceptor
5 1 6 7 9 15 rings
5 8 11 14 17 18 rings
7 6 7 8 10 11 12 13 rings

> <PUBCHEM_HEAVY_ATOM_COUNT>
22

> <PUBCHEM_ATOM_DEF_STEREO_COUNT>
5

> <PUBCHEM_ATOM_UDEF_STEREO_COUNT>
0

> <PUBCHEM_BOND_DEF_STEREO_COUNT>
0

> <PUBCHEM_BOND_UDEF_STEREO_COUNT>
0

> <PUBCHEM_ISOTOPIC_ATOM_COUNT>
0

> <PUBCHEM_COMPONENT_COUNT>
1

> <PUBCHEM_CACTVS_TAUTO_COUNT>
50

> <PUBCHEM_CONFORMER_ID>
002F0E9300000001

> <PUBCHEM_MMFF94_ENERGY>
53.1668

> <PUBCHEM_FEATURE_SELFOVERLAP>
30.499

> <PUBCHEM_SHAPE_FINGERPRINT>
10411042 1 18411980230496230503
104564 63 18341620282384513351
10616163 171 18267589013530234390
10688039 33 18113905953343845717
10967382 1 18267305528619482036
1100329 8 17978512258660420008
11578080 2 17488719243395885065
11680986 33 17693378841307110182
12553582 1 18269272524735639014
12788726 201 18409452475308100082
12954195 1 18196961936477120910
13140716 1 18340485539372363928
138480 1 15097053441553370337
14178342 30 18049429349913320290
14223421 5 18269557126591134758
14787075 74 18042691795607945362
14790565 3 18122361317356597033
15042514 8 18195247707127694033
16945 1 18267295628772573340
17492 54 18264216987545933308
17492 89 18265894666149566834
19591789 44 18339647836071259708
20028762 73 16830921839560779957
20510252 161 18343303639419514248
20905425 154 18199189481882868270
21421861 104 18117000970790552515
21501502 16 18337676295594964572
23184049 29 18266743476393424886
2334 1 18411984650185817972
23402539 116 18272645770717687814
23419403 2 18045187614046257381
23558518 356 18120098286434677498
23559900 14 18124869063388061778
2748010 2 18341890762392866724
3091708 16 9065434364236539745
335352 9 17833832672936871278
34934 24 18197775716298812614
350125 39 18410013196199556524
352729 6 18125723378915817485
58807428 26 16898773783672442728
589210 1 17979360750433996871
5939293 188 18197497539614288062
6438718 38 17773874199720169877
6443956 14 18410854382713960373
7097593 13 17612025971926334498
7164475 11 18339922598035289886
7471813 234 18268686382011911359
9709674 26 17911235014308828366

> <PUBCHEM_SHAPE_MULTIPOLES>
423.4
6.53
4.62
0.8
2.32
2.53
0.04
-3.08
0.81
0.51
-0.89
0.1
-0.09
-0.61

> <PUBCHEM_SHAPE_SELFOVERLAP>
908.32

> <PUBCHEM_SHAPE_VOLUME>
234.7

> <PUBCHEM_COORDINATE_TYPE>
2
5
10

$$$$
