5282124
  -OEChem-02172602373D

 21 22  0     0  0  0  0  0  0999 V2000
    2.2191   -2.4564    0.0010 Cl  0  0  0  0  0  0  0  0  0  0  0  0
   -0.5231   -1.4656    0.0031 O   0  0  0  0  0  0  0  0  0  0  0  0
   -1.7928    2.3937    0.0024 O   0  0  0  0  0  0  0  0  0  0  0  0
    4.0419   -0.0988   -0.0024 O   0  0  0  0  0  0  0  0  0  0  0  0
   -2.7439   -2.2442   -0.0016 O   0  0  0  0  0  0  0  0  0  0  0  0
   -3.7024    0.4146   -0.0036 N   0  0  0  0  0  0  0  0  0  0  0  0
    0.0134    0.8938    0.0009 C   0  0  0  0  0  0  0  0  0  0  0  0
    0.3866   -0.4445    0.0016 C   0  0  0  0  0  0  0  0  0  0  0  0
   -1.4168    1.2278    0.0013 C   0  0  0  0  0  0  0  0  0  0  0  0
    0.9858    1.8977   -0.0001 C   0  0  0  0  0  0  0  0  0  0  0  0
   -2.3783    0.0869   -0.0010 C   0  0  0  0  0  0  0  0  0  0  0  0
    1.7381   -0.7926    0.0003 C   0  0  0  0  0  0  0  0  0  0  0  0
    2.7127    0.2053   -0.0012 C   0  0  0  0  0  0  0  0  0  0  0  0
    2.3367    1.5488   -0.0011 C   0  0  0  0  0  0  0  0  0  0  0  0
   -1.8769   -1.1664    0.0002 C   0  0  0  0  0  0  0  0  0  0  0  0
    0.7123    2.9491   -0.0004 H   0  0  0  0  0  0  0  0  0  0  0  0
    3.0859    2.3364   -0.0020 H   0  0  0  0  0  0  0  0  0  0  0  0
   -3.9832    1.3871   -0.0032 H   0  0  0  0  0  0  0  0  0  0  0  0
   -4.4021   -0.3171   -0.0044 H   0  0  0  0  0  0  0  0  0  0  0  0
    4.5586    0.7251   -0.0032 H   0  0  0  0  0  0  0  0  0  0  0  0
   -2.1774   -3.0354   -0.0004 H   0  0  0  0  0  0  0  0  0  0  0  0
  1 12  1  0  0  0  0
  2  8  1  0  0  0  0
  2 15  1  0  0  0  0
  3  9  2  0  0  0  0
  4 13  1  0  0  0  0
  4 20  1  0  0  0  0
  5 15  1  0  0  0  0
  5 21  1  0  0  0  0
  6 11  1  0  0  0  0
  6 18  1  0  0  0  0
  6 19  1  0  0  0  0
  7  8  2  0  0  0  0
  7  9  1  0  0  0  0
  7 10  1  0  0  0  0
  8 12  1  0  0  0  0
  9 11  1  0  0  0  0
 10 14  2  0  0  0  0
 10 16  1  0  0  0  0
 11 15  2  0  0  0  0
 12 13  2  0  0  0  0
 13 14  1  0  0  0  0
 14 17  1  0  0  0  0
M  END
> <PUBCHEM_COMPOUND_CID>
5282124

> <PUBCHEM_CONFORMER_RMSD>
0.4

> <PUBCHEM_CONFORMER_DIVERSEORDER>
1

> <PUBCHEM_MMFF94_PARTIAL_CHARGES>
21
1 -0.18
10 -0.15
11 0.11
12 0.18
13 0.08
14 -0.15
15 0.15
16 0.15
17 0.15
18 0.4
19 0.4
2 -0.16
20 0.45
21 0.45
3 -0.57
4 -0.53
5 -0.53
6 -0.9
7 0.09
8 0.08
9 0.47

> <PUBCHEM_EFFECTIVE_ROTOR_COUNT>
0

> <PUBCHEM_PHARMACOPHORE_FEATURES>
8
1 2 acceptor
1 3 acceptor
1 4 donor
1 5 donor
1 6 cation
1 6 donor
6 2 7 8 9 11 15 rings
6 7 8 10 12 13 14 rings

> <PUBCHEM_HEAVY_ATOM_COUNT>
15

> <PUBCHEM_ATOM_DEF_STEREO_COUNT>
0

> <PUBCHEM_ATOM_UDEF_STEREO_COUNT>
0

> <PUBCHEM_BOND_DEF_STEREO_COUNT>
0

> <PUBCHEM_BOND_UDEF_STEREO_COUNT>
0

> <PUBCHEM_ISOTOPIC_ATOM_COUNT>
0

> <PUBCHEM_COMPONENT_COUNT>
1

> <PUBCHEM_CACTVS_TAUTO_COUNT>
23

> <PUBCHEM_CONFORMER_ID>
0050994C00000001

> <PUBCHEM_MMFF94_ENERGY>
39.9922

> <PUBCHEM_FEATURE_SELFOVERLAP>
40.625

> <PUBCHEM_SHAPE_FINGERPRINT>
10608611 8 18411414025004831168
10967382 1 18410573955091974311
11132069 177 18411131467885967360
11471102 20 18410569613001506941
13140716 1 18267024040557481281
13221675 6 18410295808767743538
13380535 76 18410854352037447767
13897977 150 18411415154791908309
14144814 61 18338798914136159248
14325111 11 18338516472760392160
14790565 3 14225339496630986235
15196674 1 18338517555060222916
15442244 35 18194964045822849050
16945 1 18410575084705439328
193761 8 18338797814555927042
20201158 50 18410854360690516966
20588541 1 18410576175605903620
21267235 1 18338526334242849519
21501502 16 18338238274827741724
2334 1 17978229692234235620
23402539 116 18343291557819065461
23463225 33 18335980896310338474
23552423 10 18334859471279389916
23559900 14 17982170020883604870
2748010 2 18122063091816709580
3312278 4 18410858784448744731
528886 8 18411414029230765616
53812653 166 18342734126703369128
7364860 26 18342455907475476834
8809292 202 18261115213593697266

> <PUBCHEM_SHAPE_MULTIPOLES>
282.1
5.21
2.52
0.59
0.04
0.45
0
0.65
0.01
-0.04
0
0.04
0
0

> <PUBCHEM_SHAPE_SELFOVERLAP>
613.05

> <PUBCHEM_SHAPE_VOLUME>
154.4

> <PUBCHEM_COORDINATE_TYPE>
2
5
10

$$$$
