5367674
  -OEChem-02172602493D

 37 37  0     1  0  0  0  0  0999 V2000
    2.9613   -0.0867   -0.3785 O   0  0  0  0  0  0  0  0  0  0  0  0
    2.0005    1.4208    1.0848 O   0  0  0  0  0  0  0  0  0  0  0  0
   -0.0844   -1.0242    0.0515 C   0  0  0  0  0  0  0  0  0  0  0  0
   -0.6020    0.3443    0.3258 C   0  0  1  0  0  0  0  0  0  0  0  0
    0.6597    0.1795   -0.4477 C   0  0  1  0  0  0  0  0  0  0  0  0
   -1.8245    0.8428   -0.4052 C   0  0  2  0  0  0  0  0  0  0  0  0
   -0.7611   -1.8832   -0.9620 C   0  0  0  0  0  0  0  0  0  0  0  0
    0.4569   -1.7822    1.2159 C   0  0  0  0  0  0  0  0  0  0  0  0
    1.9234    0.5922    0.1877 C   0  0  0  0  0  0  0  0  0  0  0  0
   -1.7719    2.3658   -0.5568 C   0  0  0  0  0  0  0  0  0  0  0  0
   -3.1172    0.4466    0.2685 C   0  0  0  0  0  0  0  0  0  0  0  0
   -4.0570   -0.3164   -0.3093 C   0  0  0  0  0  0  0  0  0  0  0  0
    4.2565    0.2200    0.1476 C   0  0  0  0  0  0  0  0  0  0  0  0
   -5.3333   -0.7099    0.3574 C   0  0  0  0  0  0  0  0  0  0  0  0
    5.2932   -0.6095   -0.5797 C   0  0  0  0  0  0  0  0  0  0  0  0
   -0.5497    0.7228    1.3410 H   0  0  0  0  0  0  0  0  0  0  0  0
    0.6204    0.3837   -1.5140 H   0  0  0  0  0  0  0  0  0  0  0  0
   -1.8369    0.4610   -1.4328 H   0  0  0  0  0  0  0  0  0  0  0  0
   -0.9326   -1.3859   -1.9215 H   0  0  0  0  0  0  0  0  0  0  0  0
   -0.1418   -2.7603   -1.1840 H   0  0  0  0  0  0  0  0  0  0  0  0
   -1.7201   -2.2511   -0.5838 H   0  0  0  0  0  0  0  0  0  0  0  0
    1.2726   -2.4416    0.9000 H   0  0  0  0  0  0  0  0  0  0  0  0
    0.8418   -1.1344    2.0112 H   0  0  0  0  0  0  0  0  0  0  0  0
   -0.3258   -2.4055    1.6626 H   0  0  0  0  0  0  0  0  0  0  0  0
   -2.6423    2.7408   -1.1068 H   0  0  0  0  0  0  0  0  0  0  0  0
   -0.8728    2.6724   -1.1028 H   0  0  0  0  0  0  0  0  0  0  0  0
   -1.7472    2.8638    0.4196 H   0  0  0  0  0  0  0  0  0  0  0  0
   -3.2749    0.8084    1.2822 H   0  0  0  0  0  0  0  0  0  0  0  0
   -3.9055   -0.6820   -1.3214 H   0  0  0  0  0  0  0  0  0  0  0  0
    4.4666    1.2857    0.0028 H   0  0  0  0  0  0  0  0  0  0  0  0
    4.2800   -0.0133    1.2179 H   0  0  0  0  0  0  0  0  0  0  0  0
   -5.4145   -0.3050    1.3711 H   0  0  0  0  0  0  0  0  0  0  0  0
   -5.3999   -1.8004    0.4194 H   0  0  0  0  0  0  0  0  0  0  0  0
   -6.1853   -0.3457   -0.2248 H   0  0  0  0  0  0  0  0  0  0  0  0
    6.2976   -0.4000   -0.2013 H   0  0  0  0  0  0  0  0  0  0  0  0
    5.0854   -1.6778   -0.4591 H   0  0  0  0  0  0  0  0  0  0  0  0
    5.2693   -0.4004   -1.6543 H   0  0  0  0  0  0  0  0  0  0  0  0
  1  9  1  0  0  0  0
  1 13  1  0  0  0  0
  2  9  2  0  0  0  0
  3  4  1  0  0  0  0
  3  5  1  0  0  0  0
  3  7  1  0  0  0  0
  3  8  1  0  0  0  0
  4  5  1  0  0  0  0
  4  6  1  0  0  0  0
  4 16  1  0  0  0  0
  5  9  1  0  0  0  0
  5 17  1  0  0  0  0
  6 10  1  0  0  0  0
  6 11  1  0  0  0  0
  6 18  1  0  0  0  0
  7 19  1  0  0  0  0
  7 20  1  0  0  0  0
  7 21  1  0  0  0  0
  8 22  1  0  0  0  0
  8 23  1  0  0  0  0
  8 24  1  0  0  0  0
 10 25  1  0  0  0  0
 10 26  1  0  0  0  0
 10 27  1  0  0  0  0
 11 12  2  0  0  0  0
 11 28  1  0  0  0  0
 12 14  1  0  0  0  0
 12 29  1  0  0  0  0
 13 15  1  0  0  0  0
 13 30  1  0  0  0  0
 13 31  1  0  0  0  0
 14 32  1  0  0  0  0
 14 33  1  0  0  0  0
 14 34  1  0  0  0  0
 15 35  1  0  0  0  0
 15 36  1  0  0  0  0
 15 37  1  0  0  0  0
M  END
> <PUBCHEM_COMPOUND_CID>
5367674

> <PUBCHEM_CONFORMER_RMSD>
0.6

> <PUBCHEM_CONFORMER_DIVERSEORDER>
1
167
73
36
175
40
75
143
141
87
151
96
128
68
49
65
84
166
101
9
130
54
70
52
168
53
92
123
103
138
32
104
174
85
50
56
142
136
39
13
55
11
107
5
69
160
7
152
114
164
46
60
77
42
48
35
97
150
158
122
88
37
82
172
165
99
26
127
14
59
29
2
129
126
177
76
6
145
157
125
63
147
113
140
98
24
21
106
118
134
61
16
74
91
135
102
153
159
45
31
51
93
120
154
20
41
117
12
86
133
38
144
146
34
95
176
79
156
4
58
170
10
155
18
131
124
94
15
17
108
89
33
100
105
83
72
162
43
90
28
173
47
64
112
3
119
80
161
25
110
57
115
109
139
148
81
132
137
8
78
19
149
71
67
30
66
163
27
169
121
44
62
171
111
116
23
22

> <PUBCHEM_MMFF94_PARTIAL_CHARGES>
17
1 -0.43
11 -0.29
12 -0.29
13 0.28
14 0.14
16 0.1
17 0.1
2 -0.57
28 0.15
29 0.15
3 -0.19
4 -0.19
5 -0.1
6 0.23
7 0.09
8 0.09
9 0.72

> <PUBCHEM_EFFECTIVE_ROTOR_COUNT>
5.6

> <PUBCHEM_PHARMACOPHORE_FEATURES>
4
1 10 hydrophobe
1 14 hydrophobe
1 2 acceptor
3 3 7 8 hydrophobe

> <PUBCHEM_HEAVY_ATOM_COUNT>
15

> <PUBCHEM_ATOM_DEF_STEREO_COUNT>
0

> <PUBCHEM_ATOM_UDEF_STEREO_COUNT>
3

> <PUBCHEM_BOND_DEF_STEREO_COUNT>
1

> <PUBCHEM_BOND_UDEF_STEREO_COUNT>
0

> <PUBCHEM_ISOTOPIC_ATOM_COUNT>
0

> <PUBCHEM_COMPONENT_COUNT>
1

> <PUBCHEM_CACTVS_TAUTO_COUNT>
1

> <PUBCHEM_CONFORMER_ID>
0051E77A00000001

> <PUBCHEM_MMFF94_ENERGY>
22.8445

> <PUBCHEM_FEATURE_SELFOVERLAP>
20.297

> <PUBCHEM_SHAPE_FINGERPRINT>
10922049 32 18412263934565859222
11132069 177 18270951457932978865
117890 112 8286204941724341358
12592029 89 18201441333442278990
12715332 25 17775282785178014711
13533116 47 13542192637331446292
13690532 89 18343585127238857086
13862211 1 18408599279659214499
14943859 89 18408040723610025506
14993402 34 17313106362592731652
15048467 5 7853854979450288646
16945 1 18339622504106052670
17834072 33 15792018908447529746
17834076 25 7853574603889915703
18186145 218 17846486037253614848
19873495 37 18335415777087715986
200 152 16559033787757230950
20645477 56 18271515507514384440
20645477 70 17632304428771466774
21501502 16 17972309625683864737
21524375 3 18410576179990704090
23402539 116 18059851770787799405
23557571 272 18041278773606951501
23559900 14 18201997712965330906
296302 2 11891335343864584761
3286 77 17917993905616584297
366044 4 18413389838883791678
474229 33 18260551138527740283
4990 188 18272655623382921886
57003041 33 17967530164654605165
59755656 215 18339644438778658719
69090 78 18202559605270425958
7495541 125 14764056939461733175
81228 2 17765408217420316335
9999458 23 18114463447976488772

> <PUBCHEM_SHAPE_MULTIPOLES>
296.95
9.03
1.8
0.94
2.15
0.21
0.07
-1.11
-0.48
-0.69
-0.05
0.15
-0.18
0.34

> <PUBCHEM_SHAPE_SELFOVERLAP>
582.088

> <PUBCHEM_SHAPE_VOLUME>
181.6

> <PUBCHEM_COORDINATE_TYPE>
2
5
10

$$$$
