1651
  -OEChem-02172602443D

 33 35  0     1  0  0  0  0  0999 V2000
    1.8854   -0.1118    1.2104 O   0  0  0  0  0  0  0  0  0  0  0  0
    1.8744    2.6141   -0.6063 O   0  0  0  0  0  0  0  0  0  0  0  0
    2.6399   -0.7292   -1.6351 O   0  0  0  0  0  0  0  0  0  0  0  0
    5.2861   -0.9404    0.1960 O   0  0  0  0  0  0  0  0  0  0  0  0
   -0.2860   -0.0872    0.2589 N   0  0  0  0  0  0  0  0  0  0  0  0
   -1.5509   -1.8604   -0.1906 N   0  0  0  0  0  0  0  0  0  0  0  0
   -4.3007    0.6102    0.0497 N   0  0  0  0  0  0  0  0  0  0  0  0
   -4.5409   -1.7201   -0.4200 N   0  0  0  0  0  0  0  0  0  0  0  0
    0.9226    0.6993    0.5137 C   0  0  2  0  0  0  0  0  0  0  0  0
    1.5889    1.2258   -0.7605 C   0  0  2  0  0  0  0  0  0  0  0  0
    2.8810    0.4368   -0.8581 C   0  0  1  0  0  0  0  0  0  0  0  0
    3.1698    0.0922    0.5987 C   0  0  2  0  0  0  0  0  0  0  0  0
    4.0323   -1.1347    0.8301 C   0  0  0  0  0  0  0  0  0  0  0  0
   -1.5766    0.3770    0.2382 C   0  0  0  0  0  0  0  0  0  0  0  0
   -0.3234   -1.4294   -0.0029 C   0  0  0  0  0  0  0  0  0  0  0  0
   -2.3453   -0.7475   -0.0442 C   0  0  0  0  0  0  0  0  0  0  0  0
   -2.1219    1.6382    0.4346 C   0  0  0  0  0  0  0  0  0  0  0  0
   -3.7303   -0.6063   -0.1358 C   0  0  0  0  0  0  0  0  0  0  0  0
   -3.5044    1.6734    0.3230 C   0  0  0  0  0  0  0  0  0  0  0  0
    0.6375    1.5106    1.1931 H   0  0  0  0  0  0  0  0  0  0  0  0
    0.9490    1.1187   -1.6434 H   0  0  0  0  0  0  0  0  0  0  0  0
    3.7007    0.9980   -1.3183 H   0  0  0  0  0  0  0  0  0  0  0  0
    3.6280    0.9631    1.0856 H   0  0  0  0  0  0  0  0  0  0  0  0
    3.5602   -2.0438    0.4422 H   0  0  0  0  0  0  0  0  0  0  0  0
    4.1935   -1.2875    1.9028 H   0  0  0  0  0  0  0  0  0  0  0  0
    2.3333    2.9076   -1.4118 H   0  0  0  0  0  0  0  0  0  0  0  0
    0.5656   -2.0436   -0.0479 H   0  0  0  0  0  0  0  0  0  0  0  0
    3.4920   -1.1807   -1.7585 H   0  0  0  0  0  0  0  0  0  0  0  0
   -1.5308    2.5174    0.6519 H   0  0  0  0  0  0  0  0  0  0  0  0
    5.8187   -1.7359    0.3666 H   0  0  0  0  0  0  0  0  0  0  0  0
   -4.0364    2.6110    0.4572 H   0  0  0  0  0  0  0  0  0  0  0  0
   -5.5425   -1.5980   -0.4832 H   0  0  0  0  0  0  0  0  0  0  0  0
   -4.1259   -2.6312   -0.5607 H   0  0  0  0  0  0  0  0  0  0  0  0
  1  9  1  0  0  0  0
  1 12  1  0  0  0  0
  2 10  1  0  0  0  0
  2 26  1  0  0  0  0
  3 11  1  0  0  0  0
  3 28  1  0  0  0  0
  4 13  1  0  0  0  0
  4 30  1  0  0  0  0
  5  9  1  0  0  0  0
  5 14  1  0  0  0  0
  5 15  1  0  0  0  0
  6 15  2  0  0  0  0
  6 16  1  0  0  0  0
  7 18  2  0  0  0  0
  7 19  1  0  0  0  0
  8 18  1  0  0  0  0
  8 32  1  0  0  0  0
  8 33  1  0  0  0  0
  9 10  1  0  0  0  0
  9 20  1  0  0  0  0
 10 11  1  0  0  0  0
 10 21  1  0  0  0  0
 11 12  1  0  0  0  0
 11 22  1  0  0  0  0
 12 13  1  0  0  0  0
 12 23  1  0  0  0  0
 13 24  1  0  0  0  0
 13 25  1  0  0  0  0
 14 16  2  0  0  0  0
 14 17  1  0  0  0  0
 15 27  1  0  0  0  0
 16 18  1  0  0  0  0
 17 19  2  0  0  0  0
 17 29  1  0  0  0  0
 19 31  1  0  0  0  0
M  END
> <PUBCHEM_COMPOUND_CID>
1651

> <PUBCHEM_CONFORMER_RMSD>
0.6

> <PUBCHEM_CONFORMER_DIVERSEORDER>
15
64
44
111
108
5
109
16
34
82
36
93
106
61
110
37
76
25
84
24
20
52
91
18
2
58
80
77
101
112
88
104
87
114
42
56
79
31
13
53
96
71
12
47
70
107
57
72
98
33
30
90
41
40
27
54
62
8
17
99
63
38
35
94
78
11
75
65
73
115
22
21
69
59
51
60
105
81
1
55
113
26
10
28
9
116
4
50
74
46
48
14
102
3
95
97
32
6
86
29
68
19
66
83
49
43
92
7
85
100
103
45
67
23
89
39

> <PUBCHEM_MMFF94_PARTIAL_CHARGES>
27
1 -0.56
10 0.28
11 0.28
12 0.28
13 0.28
14 -0.15
15 0.04
16 0.23
17 -0.15
18 0.41
19 0.16
2 -0.68
26 0.4
27 0.15
28 0.4
29 0.15
3 -0.68
30 0.4
31 0.15
32 0.4
33 0.4
4 -0.68
5 0.05
6 -0.57
7 -0.62
8 -0.9
9 0.54

> <PUBCHEM_EFFECTIVE_ROTOR_COUNT>
3

> <PUBCHEM_PHARMACOPHORE_FEATURES>
13
1 1 acceptor
1 2 acceptor
1 2 donor
1 3 acceptor
1 3 donor
1 4 acceptor
1 4 donor
1 8 donor
3 5 6 15 cation
3 7 8 18 cation
5 1 9 10 11 12 rings
5 5 6 14 15 16 rings
6 7 14 16 17 18 19 rings

> <PUBCHEM_HEAVY_ATOM_COUNT>
19

> <PUBCHEM_ATOM_DEF_STEREO_COUNT>
0

> <PUBCHEM_ATOM_UDEF_STEREO_COUNT>
4

> <PUBCHEM_BOND_DEF_STEREO_COUNT>
0

> <PUBCHEM_BOND_UDEF_STEREO_COUNT>
0

> <PUBCHEM_ISOTOPIC_ATOM_COUNT>
0

> <PUBCHEM_COMPONENT_COUNT>
1

> <PUBCHEM_CACTVS_TAUTO_COUNT>
2

> <PUBCHEM_CONFORMER_ID>
000006730000000F

> <PUBCHEM_MMFF94_ENERGY>
44.9813

> <PUBCHEM_FEATURE_SELFOVERLAP>
66.088

> <PUBCHEM_SHAPE_FINGERPRINT>
10062212 137 18412538808620921587
10922523 26 18059861649033121677
11132069 177 18272654528535604329
11578080 2 17751890666992567116
12236239 1 18113337492103208912
12507560 40 18059845199698898240
12916754 54 18260545671392685197
13140716 1 18411706504088674809
13581323 91 18201433696625728168
13675066 3 18131627889495666578
13862211 1 18270396222263710255
14004511 7 18412826854591451825
14144814 61 18335421270297782913
15196674 1 18410572907283724801
15375358 24 17561079194398798770
15442244 35 18408322185607129064
15536298 74 18337952393536670168
16752209 62 18411125953459286579
16945 1 18410301315190156155
17492 89 18337673138810540882
17804303 29 18343298163093508336
17862501 102 18409726261966121251
1813 80 17169270339476829938
18186145 218 17095797806605750473
19422 9 18114185249933191795
200 152 18336259115701936219
20279233 1 17131834261224387990
20510252 161 18130791183128226521
21267235 1 18409454691015469531
2255824 54 17895478128352045100
22646028 28 18333447642694254762
23402539 116 18271797999881301589
23463225 33 18335419041119949059
23532345 12 18411136939531897016
23557571 272 17775284962894959315
23559900 14 18060137631337653720
23598291 2 18187087260459315596
296302 2 16917062283068721560
312423 11 18261966244373239417
3286 77 18261388983330370789
4340502 62 14045744872059725703
474 4 17388263608991150556
5104073 3 18412546539155711033
573450 72 18410285878792786579
69090 78 17489299793877202527
7364860 26 18267865163185679304
74978 22 18261678176484494920
77492 1 18040434390988110641
9709674 26 18271251602647690015
9981440 41 17396422079779822800

> <PUBCHEM_SHAPE_MULTIPOLES>
347.61
8.76
1.94
0.96
1.06
0.46
-0.13
-2.1
0.25
-0.73
-0.2
0.78
0
-0.8

> <PUBCHEM_SHAPE_SELFOVERLAP>
756.732

> <PUBCHEM_SHAPE_VOLUME>
189.8

> <PUBCHEM_COORDINATE_TYPE>
2
5
10

$$$$
