5318605
  -OEChem-02172602423D

 41 43  0     0  0  0  0  0  0999 V2000
    1.9471    0.5591    1.7622 O   0  0  0  0  0  0  0  0  0  0  0  0
   -1.6314    1.7875   -0.7224 O   0  0  0  0  0  0  0  0  0  0  0  0
   -4.3567    1.4840   -0.9147 O   0  0  0  0  0  0  0  0  0  0  0  0
    6.4035    0.3692    0.1343 O   0  0  0  0  0  0  0  0  0  0  0  0
   -5.5696   -0.7940    0.0873 O   0  0  0  0  0  0  0  0  0  0  0  0
    0.8954   -0.7451   -0.6127 C   0  0  0  0  0  0  0  0  0  0  0  0
    0.0268   -0.2030    0.4938 C   0  0  0  0  0  0  0  0  0  0  0  0
    2.3563   -0.4341   -0.4192 C   0  0  0  0  0  0  0  0  0  0  0  0
   -1.4467   -0.3354    0.3762 C   0  0  0  0  0  0  0  0  0  0  0  0
    2.8035    0.1867    0.7526 C   0  0  0  0  0  0  0  0  0  0  0  0
    0.5966    0.3751    1.5653 C   0  0  0  0  0  0  0  0  0  0  0  0
    3.2892   -0.7838   -1.4033 C   0  0  0  0  0  0  0  0  0  0  0  0
   -2.2209    0.6602   -0.2274 C   0  0  0  0  0  0  0  0  0  0  0  0
   -2.0687   -1.4817    0.8799 C   0  0  0  0  0  0  0  0  0  0  0  0
    4.1601    0.4566    0.9419 C   0  0  0  0  0  0  0  0  0  0  0  0
   -3.6042    0.5107   -0.3264 C   0  0  0  0  0  0  0  0  0  0  0  0
    5.0800    0.1069   -0.0453 C   0  0  0  0  0  0  0  0  0  0  0  0
    4.6453   -0.5123   -1.2166 C   0  0  0  0  0  0  0  0  0  0  0  0
   -4.2197   -0.6352    0.1777 C   0  0  0  0  0  0  0  0  0  0  0  0
   -3.4519   -1.6312    0.7810 C   0  0  0  0  0  0  0  0  0  0  0  0
   -4.8550    2.5168   -0.0677 C   0  0  0  0  0  0  0  0  0  0  0  0
    7.2900   -0.0156   -0.9153 C   0  0  0  0  0  0  0  0  0  0  0  0
   -6.0691   -1.4414   -1.0813 C   0  0  0  0  0  0  0  0  0  0  0  0
    0.5721   -0.3109   -1.5672 H   0  0  0  0  0  0  0  0  0  0  0  0
    0.7709   -1.8335   -0.6702 H   0  0  0  0  0  0  0  0  0  0  0  0
    0.0436    0.7758    2.4050 H   0  0  0  0  0  0  0  0  0  0  0  0
    2.9626   -1.2710   -2.3186 H   0  0  0  0  0  0  0  0  0  0  0  0
   -1.4854   -2.2687    1.3525 H   0  0  0  0  0  0  0  0  0  0  0  0
    4.4996    0.9393    1.8549 H   0  0  0  0  0  0  0  0  0  0  0  0
    5.3068   -0.8116   -2.0226 H   0  0  0  0  0  0  0  0  0  0  0  0
   -3.9248   -2.5262    1.1764 H   0  0  0  0  0  0  0  0  0  0  0  0
   -2.3135    2.3363   -1.1459 H   0  0  0  0  0  0  0  0  0  0  0  0
   -4.0349    3.0371    0.4372 H   0  0  0  0  0  0  0  0  0  0  0  0
   -5.5478    2.1040    0.6724 H   0  0  0  0  0  0  0  0  0  0  0  0
   -5.3958    3.2369   -0.6879 H   0  0  0  0  0  0  0  0  0  0  0  0
    8.3009    0.2683   -0.6048 H   0  0  0  0  0  0  0  0  0  0  0  0
    7.0762    0.5276   -1.8421 H   0  0  0  0  0  0  0  0  0  0  0  0
    7.2936   -1.1011   -1.0613 H   0  0  0  0  0  0  0  0  0  0  0  0
   -5.6817   -2.4630   -1.1487 H   0  0  0  0  0  0  0  0  0  0  0  0
   -5.7999   -0.8771   -1.9797 H   0  0  0  0  0  0  0  0  0  0  0  0
   -7.1594   -1.4847   -1.0094 H   0  0  0  0  0  0  0  0  0  0  0  0
  1 10  1  0  0  0  0
  1 11  1  0  0  0  0
  2 13  1  0  0  0  0
  2 32  1  0  0  0  0
  3 16  1  0  0  0  0
  3 21  1  0  0  0  0
  4 17  1  0  0  0  0
  4 22  1  0  0  0  0
  5 19  1  0  0  0  0
  5 23  1  0  0  0  0
  6  7  1  0  0  0  0
  6  8  1  0  0  0  0
  6 24  1  0  0  0  0
  6 25  1  0  0  0  0
  7  9  1  0  0  0  0
  7 11  2  0  0  0  0
  8 10  2  0  0  0  0
  8 12  1  0  0  0  0
  9 13  2  0  0  0  0
  9 14  1  0  0  0  0
 10 15  1  0  0  0  0
 11 26  1  0  0  0  0
 12 18  2  0  0  0  0
 12 27  1  0  0  0  0
 13 16  1  0  0  0  0
 14 20  2  0  0  0  0
 14 28  1  0  0  0  0
 15 17  2  0  0  0  0
 15 29  1  0  0  0  0
 16 19  2  0  0  0  0
 17 18  1  0  0  0  0
 18 30  1  0  0  0  0
 19 20  1  0  0  0  0
 20 31  1  0  0  0  0
 21 33  1  0  0  0  0
 21 34  1  0  0  0  0
 21 35  1  0  0  0  0
 22 36  1  0  0  0  0
 22 37  1  0  0  0  0
 22 38  1  0  0  0  0
 23 39  1  0  0  0  0
 23 40  1  0  0  0  0
 23 41  1  0  0  0  0
M  END
> <PUBCHEM_COMPOUND_CID>
5318605

> <PUBCHEM_CONFORMER_RMSD>
0.8

> <PUBCHEM_CONFORMER_DIVERSEORDER>
1
7
6
8
4
5
2
3

> <PUBCHEM_MMFF94_PARTIAL_CHARGES>
30
1 -0.16
10 0.08
11 -0.07
12 -0.15
13 0.08
14 -0.15
15 -0.15
16 0.08
17 0.08
18 -0.15
19 0.08
2 -0.53
20 -0.15
21 0.28
22 0.28
23 0.28
26 0.15
27 0.15
28 0.15
29 0.15
3 -0.36
30 0.15
31 0.15
32 0.45
4 -0.36
5 -0.36
6 0.28
7 -0.17
8 -0.14
9 0.03

> <PUBCHEM_EFFECTIVE_ROTOR_COUNT>
4.4

> <PUBCHEM_PHARMACOPHORE_FEATURES>
8
1 1 acceptor
1 2 donor
1 3 acceptor
1 4 acceptor
1 5 acceptor
6 1 6 7 8 10 11 rings
6 8 10 12 15 17 18 rings
6 9 13 14 16 19 20 rings

> <PUBCHEM_HEAVY_ATOM_COUNT>
23

> <PUBCHEM_ATOM_DEF_STEREO_COUNT>
0

> <PUBCHEM_ATOM_UDEF_STEREO_COUNT>
0

> <PUBCHEM_BOND_DEF_STEREO_COUNT>
0

> <PUBCHEM_BOND_UDEF_STEREO_COUNT>
0

> <PUBCHEM_ISOTOPIC_ATOM_COUNT>
0

> <PUBCHEM_COMPONENT_COUNT>
1

> <PUBCHEM_CACTVS_TAUTO_COUNT>
3

> <PUBCHEM_CONFORMER_ID>
005127CD00000001

> <PUBCHEM_MMFF94_ENERGY>
100.0019

> <PUBCHEM_FEATURE_SELFOVERLAP>
40.629

> <PUBCHEM_SHAPE_FINGERPRINT>
10 15 18271798078303601576
10670039 82 18040712545802283205
11089746 13 16950000352791211726
11315181 36 17458350770505976598
11796584 16 18408888400374453826
12107183 9 16810927319072161352
12236239 1 16660357091207599107
12390115 104 18338239237897786217
12403259 415 18131624603845672400
12516196 113 16415763033349199994
12616971 3 16009039379824859390
13540713 5 17971734599000001011
13631057 29 15864927572273336171
13668630 136 16917073277900455382
13685833 64 17060061470805328362
13760787 5 15697995245276837705
13782708 43 18201998849861137734
14386348 63 18131071545434022530
14573314 32 18413389812971251311
17844677 252 18341898510371729888
17980427 23 17822300084451547413
1813 80 16128113207848046576
19489759 90 18261111880883620159
200 152 16272210777598522723
20645477 70 17346605157750241030
21033648 29 18059844069573977144
21033650 10 17678759842716329332
21267235 1 18187369874129666003
21623969 137 17060346235953848206
21792961 116 18201730531476478486
22122407 14 14996286890529340991
2297311 6 18410014351239979529
23175994 123 17846784030996364737
23402539 116 18186237329296389350
23536379 177 18113620071656758338
23557571 272 18410857663467743577
23559900 14 18337675209427382582
23569914 152 15977239038212736412
300161 21 16443341005313671242
34797466 226 18338528524939583764
46194498 28 18201152273194374017
474 4 15502380036573448154
5104073 3 18114748114309196707
5283173 99 18342176613799158737
542803 24 17167865257588328352
7808743 9 18116147767011038221

> <PUBCHEM_SHAPE_MULTIPOLES>
443.98
15.77
1.58
1.29
9.62
0.56
0.16
-0.41
-4.66
-3.01
-0.19
0.52
-0.04
1.11

> <PUBCHEM_SHAPE_SELFOVERLAP>
965.169

> <PUBCHEM_SHAPE_VOLUME>
242.1

> <PUBCHEM_COORDINATE_TYPE>
2
5
10

$$$$
