5318603
  -OEChem-02172602423D

 77 82  0     1  0  0  0  0  0999 V2000
   -2.6432    0.3979   -1.0105 O   0  0  0  0  0  0  0  0  0  0  0  0
    0.0145   -0.6769   -1.1222 O   0  0  0  0  0  0  0  0  0  0  0  0
   -4.3974   -1.4251    0.8192 O   0  0  0  0  0  0  0  0  0  0  0  0
    0.7214   -4.0505    1.1283 O   0  0  0  0  0  0  0  0  0  0  0  0
    4.2541    1.0846   -0.2239 O   0  0  0  0  0  0  0  0  0  0  0  0
    3.0076   -3.0975    1.8131 O   0  0  0  0  0  0  0  0  0  0  0  0
   -5.0139    1.7222    3.3011 O   0  0  0  0  0  0  0  0  0  0  0  0
   -4.8184    3.7661    2.3381 O   0  0  0  0  0  0  0  0  0  0  0  0
   -1.1447   -1.4546   -0.8247 C   0  0  2  0  0  0  0  0  0  0  0  0
   -2.0448   -1.5960   -2.1651 C   0  0  2  0  0  0  0  0  0  0  0  0
   -2.2193   -0.6323   -0.0725 C   0  0  2  0  0  0  0  0  0  0  0  0
   -2.3863   -0.0667   -2.3839 C   0  0  0  0  0  0  0  0  0  0  0  0
   -2.7501   -2.9894   -1.9865 C   0  0  0  0  0  0  0  0  0  0  0  0
   -3.1283   -3.1106   -0.4636 C   0  0  2  0  0  0  0  0  0  0  0  0
   -0.8354   -2.7273   -0.0504 C   0  0  0  0  0  0  0  0  0  0  0  0
   -3.3789   -1.6912    0.1882 C   0  0  0  0  0  0  0  0  0  0  0  0
   -1.8630   -3.5513    0.1944 C   0  0  0  0  0  0  0  0  0  0  0  0
   -1.7815    0.0325    1.2207 C   0  0  0  0  0  0  0  0  0  0  0  0
   -1.3686    0.8340   -3.0730 C   0  0  0  0  0  0  0  0  0  0  0  0
   -3.7234    0.0139   -3.1288 C   0  0  0  0  0  0  0  0  0  0  0  0
    0.4803   -3.0052    0.5405 C   0  0  0  0  0  0  0  0  0  0  0  0
    1.1776   -0.8505   -0.4425 C   0  0  0  0  0  0  0  0  0  0  0  0
    1.4704   -1.9396    0.3662 C   0  0  0  0  0  0  0  0  0  0  0  0
   -2.9245    0.7518    1.8836 C   0  0  0  0  0  0  0  0  0  0  0  0
    2.1411    0.1456   -0.6247 C   0  0  0  0  0  0  0  0  0  0  0  0
    2.7137   -2.0345    1.0053 C   0  0  0  0  0  0  0  0  0  0  0  0
   -3.2942    2.0325    1.6932 C   0  0  0  0  0  0  0  0  0  0  0  0
    3.3823    0.0596    0.0116 C   0  0  0  0  0  0  0  0  0  0  0  0
    3.6730   -1.0303    0.8305 C   0  0  0  0  0  0  0  0  0  0  0  0
    1.8599    1.3248   -1.5040 C   0  0  0  0  0  0  0  0  0  0  0  0
   -2.6443    2.9829    0.7280 C   0  0  0  0  0  0  0  0  0  0  0  0
    4.9651   -1.1148    1.4889 C   0  0  0  0  0  0  0  0  0  0  0  0
   -4.4335    2.6120    2.4640 C   0  0  0  0  0  0  0  0  0  0  0  0
    5.5536    1.0631    0.4051 C   0  0  0  0  0  0  0  0  0  0  0  0
    1.2389    2.4752   -0.7546 C   0  0  0  0  0  0  0  0  0  0  0  0
    5.8425   -0.1298    1.2858 C   0  0  0  0  0  0  0  0  0  0  0  0
    5.6474    2.3440    1.2427 C   0  0  0  0  0  0  0  0  0  0  0  0
    6.5818    1.1129   -0.7310 C   0  0  0  0  0  0  0  0  0  0  0  0
    0.8401    3.6650   -1.2436 C   0  0  0  0  0  0  0  0  0  0  0  0
    0.2256    4.7730   -0.4361 C   0  0  0  0  0  0  0  0  0  0  0  0
    1.0031    3.9805   -2.7068 C   0  0  0  0  0  0  0  0  0  0  0  0
   -1.3627   -1.8076   -3.0036 H   0  0  0  0  0  0  0  0  0  0  0  0
   -2.1178   -3.8190   -2.3275 H   0  0  0  0  0  0  0  0  0  0  0  0
   -3.6616   -2.9933   -2.5938 H   0  0  0  0  0  0  0  0  0  0  0  0
   -3.9583   -3.7961   -0.2818 H   0  0  0  0  0  0  0  0  0  0  0  0
   -1.8065   -4.4636    0.7731 H   0  0  0  0  0  0  0  0  0  0  0  0
   -1.3971   -0.7085    1.9322 H   0  0  0  0  0  0  0  0  0  0  0  0
   -0.9591    0.7323    1.0397 H   0  0  0  0  0  0  0  0  0  0  0  0
   -0.8354    1.4372   -2.3411 H   0  0  0  0  0  0  0  0  0  0  0  0
   -0.6648    0.2653   -3.6871 H   0  0  0  0  0  0  0  0  0  0  0  0
   -1.8547    1.5563   -3.7395 H   0  0  0  0  0  0  0  0  0  0  0  0
   -4.0869    1.0473   -3.1691 H   0  0  0  0  0  0  0  0  0  0  0  0
   -3.6351   -0.3687   -4.1506 H   0  0  0  0  0  0  0  0  0  0  0  0
   -4.5008   -0.5570   -2.6081 H   0  0  0  0  0  0  0  0  0  0  0  0
   -3.4486    0.1415    2.6159 H   0  0  0  0  0  0  0  0  0  0  0  0
    2.7907    1.6708   -1.9724 H   0  0  0  0  0  0  0  0  0  0  0  0
    1.2458    1.0178   -2.3530 H   0  0  0  0  0  0  0  0  0  0  0  0
   -1.7847    2.5555    0.2102 H   0  0  0  0  0  0  0  0  0  0  0  0
   -3.3635    3.2971   -0.0359 H   0  0  0  0  0  0  0  0  0  0  0  0
   -2.2922    3.8745    1.2576 H   0  0  0  0  0  0  0  0  0  0  0  0
    5.2402   -1.9529    2.1153 H   0  0  0  0  0  0  0  0  0  0  0  0
    3.5018   -2.7878    2.5894 H   0  0  0  0  0  0  0  0  0  0  0  0
    1.0943    2.3225    0.3151 H   0  0  0  0  0  0  0  0  0  0  0  0
    6.8155   -0.1862    1.7680 H   0  0  0  0  0  0  0  0  0  0  0  0
    4.8889    2.3485    2.0348 H   0  0  0  0  0  0  0  0  0  0  0  0
    6.6322    2.4594    1.7087 H   0  0  0  0  0  0  0  0  0  0  0  0
    5.4523    3.2290    0.6256 H   0  0  0  0  0  0  0  0  0  0  0  0
    7.6087    1.1734   -0.3540 H   0  0  0  0  0  0  0  0  0  0  0  0
    6.5012    0.2247   -1.3695 H   0  0  0  0  0  0  0  0  0  0  0  0
    6.4027    1.9766   -1.3821 H   0  0  0  0  0  0  0  0  0  0  0  0
   -5.7659    2.1162    3.7927 H   0  0  0  0  0  0  0  0  0  0  0  0
    0.1485    4.5055    0.6226 H   0  0  0  0  0  0  0  0  0  0  0  0
    0.8362    5.6789   -0.5056 H   0  0  0  0  0  0  0  0  0  0  0  0
   -0.7802    5.0005   -0.8027 H   0  0  0  0  0  0  0  0  0  0  0  0
    1.4597    3.1754   -3.2880 H   0  0  0  0  0  0  0  0  0  0  0  0
    0.0253    4.1897   -3.1540 H   0  0  0  0  0  0  0  0  0  0  0  0
    1.6336    4.8676   -2.8302 H   0  0  0  0  0  0  0  0  0  0  0  0
  1 11  1  0  0  0  0
  1 12  1  0  0  0  0
  2  9  1  0  0  0  0
  2 22  1  0  0  0  0
  3 16  2  0  0  0  0
  4 21  2  0  0  0  0
  5 28  1  0  0  0  0
  5 34  1  0  0  0  0
  6 26  1  0  0  0  0
  6 62  1  0  0  0  0
  7 33  1  0  0  0  0
  7 71  1  0  0  0  0
  8 33  2  0  0  0  0
  9 10  1  0  0  0  0
  9 11  1  0  0  0  0
  9 15  1  0  0  0  0
 10 12  1  0  0  0  0
 10 13  1  0  0  0  0
 10 42  1  0  0  0  0
 11 16  1  0  0  0  0
 11 18  1  0  0  0  0
 12 19  1  0  0  0  0
 12 20  1  0  0  0  0
 13 14  1  0  0  0  0
 13 43  1  0  0  0  0
 13 44  1  0  0  0  0
 14 16  1  0  0  0  0
 14 17  1  0  0  0  0
 14 45  1  0  0  0  0
 15 17  2  0  0  0  0
 15 21  1  0  0  0  0
 17 46  1  0  0  0  0
 18 24  1  0  0  0  0
 18 47  1  0  0  0  0
 18 48  1  0  0  0  0
 19 49  1  0  0  0  0
 19 50  1  0  0  0  0
 19 51  1  0  0  0  0
 20 52  1  0  0  0  0
 20 53  1  0  0  0  0
 20 54  1  0  0  0  0
 21 23  1  0  0  0  0
 22 23  2  0  0  0  0
 22 25  1  0  0  0  0
 23 26  1  0  0  0  0
 24 27  2  0  0  0  0
 24 55  1  0  0  0  0
 25 28  2  0  0  0  0
 25 30  1  0  0  0  0
 26 29  2  0  0  0  0
 27 31  1  0  0  0  0
 27 33  1  0  0  0  0
 28 29  1  0  0  0  0
 29 32  1  0  0  0  0
 30 35  1  0  0  0  0
 30 56  1  0  0  0  0
 30 57  1  0  0  0  0
 31 58  1  0  0  0  0
 31 59  1  0  0  0  0
 31 60  1  0  0  0  0
 32 36  2  0  0  0  0
 32 61  1  0  0  0  0
 34 36  1  0  0  0  0
 34 37  1  0  0  0  0
 34 38  1  0  0  0  0
 35 39  2  0  0  0  0
 35 63  1  0  0  0  0
 36 64  1  0  0  0  0
 37 65  1  0  0  0  0
 37 66  1  0  0  0  0
 37 67  1  0  0  0  0
 38 68  1  0  0  0  0
 38 69  1  0  0  0  0
 38 70  1  0  0  0  0
 39 40  1  0  0  0  0
 39 41  1  0  0  0  0
 40 72  1  0  0  0  0
 40 73  1  0  0  0  0
 40 74  1  0  0  0  0
 41 75  1  0  0  0  0
 41 76  1  0  0  0  0
 41 77  1  0  0  0  0
M  END
> <PUBCHEM_COMPOUND_CID>
5318603

> <PUBCHEM_CONFORMER_RMSD>
1

> <PUBCHEM_CONFORMER_DIVERSEORDER>
1
5
9
7
8
4
6
3
2

> <PUBCHEM_MMFF94_PARTIAL_CHARGES>
42
1 -0.56
11 0.34
12 0.28
14 0.2
15 -0.12
16 0.45
17 -0.29
18 0.14
2 -0.36
21 0.47
22 0.08
23 0.09
24 -0.29
25 -0.14
26 0.08
27 -0.12
28 0.08
29 0.03
3 -0.57
30 0.28
31 0.14
32 -0.18
33 0.71
34 0.42
35 -0.29
36 -0.29
39 -0.28
4 -0.57
40 0.14
41 0.14
46 0.15
5 -0.36
55 0.15
6 -0.53
61 0.15
62 0.45
63 0.15
64 0.15
7 -0.65
71 0.5
8 -0.57
9 0.42

> <PUBCHEM_EFFECTIVE_ROTOR_COUNT>
6.2

> <PUBCHEM_PHARMACOPHORE_FEATURES>
17
1 1 acceptor
1 2 acceptor
1 3 acceptor
1 31 hydrophobe
1 4 acceptor
1 5 acceptor
1 6 donor
1 7 acceptor
1 8 acceptor
10 1 9 10 11 12 13 14 15 16 17 rings
3 12 19 20 hydrophobe
3 34 37 38 hydrophobe
3 39 40 41 hydrophobe
3 7 8 33 anion
6 2 9 15 21 22 23 rings
6 22 23 25 26 28 29 rings
6 5 28 29 32 34 36 rings

> <PUBCHEM_HEAVY_ATOM_COUNT>
41

> <PUBCHEM_ATOM_DEF_STEREO_COUNT>
3

> <PUBCHEM_ATOM_UDEF_STEREO_COUNT>
1

> <PUBCHEM_BOND_DEF_STEREO_COUNT>
1

> <PUBCHEM_BOND_UDEF_STEREO_COUNT>
0

> <PUBCHEM_ISOTOPIC_ATOM_COUNT>
0

> <PUBCHEM_COMPONENT_COUNT>
1

> <PUBCHEM_CACTVS_TAUTO_COUNT>
19

> <PUBCHEM_CONFORMER_ID>
005127CB00000001

> <PUBCHEM_MMFF94_ENERGY>
185.2979

> <PUBCHEM_FEATURE_SELFOVERLAP>
86.414

> <PUBCHEM_SHAPE_FINGERPRINT>
10581848 31 17399237942334024516
10675989 125 17106174773715444796
10721379 63 16046145965007324759
1100329 8 18046911755753025162
11115154 58 17557669686836117847
11763715 3 17270587307275151094
12422481 6 18120375358969988680
12608794 3 17906155270662570731
12633257 1 17313686913158667064
12788726 201 17911824645115855441
13140716 1 17537157330335661966
13560911 43 17607789892747139962
13965767 371 18124886659241332792
140371 6 18122066665915399454
14068700 675 18053360356895118678
14142880 1 18413105048529691751
14294032 229 17418098698676609339
14840074 17 18334584503695727576
14950920 106 17826254040214014315
15219462 58 17344595272001619106
15420108 30 18341338777343239681
19315092 285 17905888433129512207
20764821 26 18186790375466812868
21756936 100 18131353003215273802
23559900 14 17829586698264498310
3380486 145 17967525753306642917
350125 39 17969491791735088334
3552219 110 18265332988144586663
469060 322 17749676271937337637
50150288 127 17263051241820410801
56638632 10 18408886247820397741

> <PUBCHEM_SHAPE_MULTIPOLES>
796.81
10.92
5.47
2.83
13.46
2.62
-0.47
3.43
5.51
-2.62
0.66
-3.91
2.04
-4.42

> <PUBCHEM_SHAPE_SELFOVERLAP>
1763.285

> <PUBCHEM_SHAPE_VOLUME>
426.1

> <PUBCHEM_COORDINATE_TYPE>
2
5
10

$$$$
