102434456
  -OEChem-02172602453D

 74 77  0     1  0  0  0  0  0999 V2000
    2.1326   -4.5354   -0.3017 F   0  0  0  0  0  0  0  0  0  0  0  0
    2.7812   -2.8790    0.9499 F   0  0  0  0  0  0  0  0  0  0  0  0
    1.9389   -1.0371   -0.9596 O   0  0  0  0  0  0  0  0  0  0  0  0
   -2.0016   -1.4575    0.2292 O   0  0  0  0  0  0  0  0  0  0  0  0
   -1.2614    0.6936   -1.5410 O   0  0  0  0  0  0  0  0  0  0  0  0
    0.4646   -2.0996    1.2850 O   0  0  0  0  0  0  0  0  0  0  0  0
    1.9570    1.6665   -0.3292 O   0  0  0  0  0  0  0  0  0  0  0  0
    4.5790   -2.0936   -0.7193 O   0  0  0  0  0  0  0  0  0  0  0  0
    4.0654   -3.8507   -2.1252 O   0  0  0  0  0  0  0  0  0  0  0  0
   -0.8727   -1.4893   -0.6398 C   0  0  1  0  0  0  0  0  0  0  0  0
   -0.3047   -0.0793   -0.8200 C   0  0  1  0  0  0  0  0  0  0  0  0
    0.1747   -2.4476   -0.0707 C   0  0  1  0  0  0  0  0  0  0  0  0
    1.0229   -0.1350   -1.5897 C   0  0  1  0  0  0  0  0  0  0  0  0
    1.4546   -2.3852   -0.9120 C   0  0  2  0  0  0  0  0  0  0  0  0
    2.5701   -3.2506   -0.3383 C   0  0  0  0  0  0  0  0  0  0  0  0
    1.7061    1.2276   -1.6517 C   0  0  0  0  0  0  0  0  0  0  0  0
   -2.8471   -2.5788    0.0208 C   0  0  0  0  0  0  0  0  0  0  0  0
   -2.2993    1.1576   -0.6905 C   0  0  0  0  0  0  0  0  0  0  0  0
    3.8125   -3.1262   -1.1714 C   0  0  0  0  0  0  0  0  0  0  0  0
   -4.0148   -2.4929    0.9592 C   0  0  0  0  0  0  0  0  0  0  0  0
   -2.9811    2.3251   -1.3414 C   0  0  0  0  0  0  0  0  0  0  0  0
    2.5962    2.9379   -0.3082 C   0  0  0  0  0  0  0  0  0  0  0  0
    2.8329    3.3437    1.1170 C   0  0  0  0  0  0  0  0  0  0  0  0
   -3.9374   -3.0749    2.2245 C   0  0  0  0  0  0  0  0  0  0  0  0
   -5.1779   -1.8312    0.5661 C   0  0  0  0  0  0  0  0  0  0  0  0
   -2.5213    3.6210   -1.1070 C   0  0  0  0  0  0  0  0  0  0  0  0
   -4.0747    2.1142   -2.1810 C   0  0  0  0  0  0  0  0  0  0  0  0
    5.7875   -1.8581   -1.4487 C   0  0  0  0  0  0  0  0  0  0  0  0
   -5.0232   -2.9953    3.0966 C   0  0  0  0  0  0  0  0  0  0  0  0
   -6.2637   -1.7512    1.4380 C   0  0  0  0  0  0  0  0  0  0  0  0
   -3.1554    4.7062   -1.7122 C   0  0  0  0  0  0  0  0  0  0  0  0
   -4.7088    3.1993   -2.7862 C   0  0  0  0  0  0  0  0  0  0  0  0
    4.0220    2.9899    1.7543 C   0  0  0  0  0  0  0  0  0  0  0  0
    1.8639    4.0747    1.8043 C   0  0  0  0  0  0  0  0  0  0  0  0
    6.5192   -0.6880   -0.8263 C   0  0  0  0  0  0  0  0  0  0  0  0
   -6.1863   -2.3334    2.7033 C   0  0  0  0  0  0  0  0  0  0  0  0
   -4.2492    4.4953   -2.5517 C   0  0  0  0  0  0  0  0  0  0  0  0
    4.2423    3.3671    3.0790 C   0  0  0  0  0  0  0  0  0  0  0  0
    2.0841    4.4520    3.1291 C   0  0  0  0  0  0  0  0  0  0  0  0
    3.2734    4.0981    3.7664 C   0  0  0  0  0  0  0  0  0  0  0  0
   -1.1932   -1.8432   -1.6305 H   0  0  0  0  0  0  0  0  0  0  0  0
   -0.1304    0.3658    0.1684 H   0  0  0  0  0  0  0  0  0  0  0  0
   -0.1996   -3.4751   -0.0522 H   0  0  0  0  0  0  0  0  0  0  0  0
    0.8491   -0.4664   -2.6220 H   0  0  0  0  0  0  0  0  0  0  0  0
    1.2374   -2.7162   -1.9365 H   0  0  0  0  0  0  0  0  0  0  0  0
    1.0734    1.9526   -2.1762 H   0  0  0  0  0  0  0  0  0  0  0  0
    2.6613    1.1357   -2.1826 H   0  0  0  0  0  0  0  0  0  0  0  0
    0.9639   -1.2656    1.2830 H   0  0  0  0  0  0  0  0  0  0  0  0
   -2.3161   -3.5206    0.1947 H   0  0  0  0  0  0  0  0  0  0  0  0
   -3.2084   -2.5919   -1.0154 H   0  0  0  0  0  0  0  0  0  0  0  0
   -1.9253    1.4632    0.2948 H   0  0  0  0  0  0  0  0  0  0  0  0
   -3.0543    0.3820   -0.5431 H   0  0  0  0  0  0  0  0  0  0  0  0
    1.9673    3.6819   -0.8128 H   0  0  0  0  0  0  0  0  0  0  0  0
    3.5493    2.8877   -0.8495 H   0  0  0  0  0  0  0  0  0  0  0  0
   -3.0356   -3.5910    2.5431 H   0  0  0  0  0  0  0  0  0  0  0  0
   -5.2495   -1.3713   -0.4161 H   0  0  0  0  0  0  0  0  0  0  0  0
   -1.6680    3.7973   -0.4573 H   0  0  0  0  0  0  0  0  0  0  0  0
   -4.4414    1.1094   -2.3736 H   0  0  0  0  0  0  0  0  0  0  0  0
    6.4185   -2.7530   -1.4092 H   0  0  0  0  0  0  0  0  0  0  0  0
    5.5447   -1.6296   -2.4925 H   0  0  0  0  0  0  0  0  0  0  0  0
   -4.9627   -3.4479    4.0820 H   0  0  0  0  0  0  0  0  0  0  0  0
   -7.1691   -1.2351    1.1322 H   0  0  0  0  0  0  0  0  0  0  0  0
   -2.7969    5.7151   -1.5305 H   0  0  0  0  0  0  0  0  0  0  0  0
   -5.5601    3.0351   -3.4404 H   0  0  0  0  0  0  0  0  0  0  0  0
    4.7833    2.4182    1.2300 H   0  0  0  0  0  0  0  0  0  0  0  0
    0.9322    4.3538    1.3191 H   0  0  0  0  0  0  0  0  0  0  0  0
   -7.0315   -2.2709    3.3824 H   0  0  0  0  0  0  0  0  0  0  0  0
    5.8920    0.2097   -0.8406 H   0  0  0  0  0  0  0  0  0  0  0  0
    6.7538   -0.8944    0.2231 H   0  0  0  0  0  0  0  0  0  0  0  0
    7.4492   -0.4781   -1.3619 H   0  0  0  0  0  0  0  0  0  0  0  0
   -4.7428    5.3401   -3.0232 H   0  0  0  0  0  0  0  0  0  0  0  0
    5.1679    3.0910    3.5755 H   0  0  0  0  0  0  0  0  0  0  0  0
    1.3293    5.0205    3.6645 H   0  0  0  0  0  0  0  0  0  0  0  0
    3.4448    4.3915    4.7979 H   0  0  0  0  0  0  0  0  0  0  0  0
  1 15  1  0  0  0  0
  2 15  1  0  0  0  0
  3 13  1  0  0  0  0
  3 14  1  0  0  0  0
  4 10  1  0  0  0  0
  4 17  1  0  0  0  0
  5 11  1  0  0  0  0
  5 18  1  0  0  0  0
  6 12  1  0  0  0  0
  6 48  1  0  0  0  0
  7 16  1  0  0  0  0
  7 22  1  0  0  0  0
  8 19  1  0  0  0  0
  8 28  1  0  0  0  0
  9 19  2  0  0  0  0
 10 11  1  0  0  0  0
 10 12  1  0  0  0  0
 10 41  1  0  0  0  0
 11 13  1  0  0  0  0
 11 42  1  0  0  0  0
 12 14  1  0  0  0  0
 12 43  1  0  0  0  0
 13 16  1  0  0  0  0
 13 44  1  0  0  0  0
 14 15  1  0  0  0  0
 14 45  1  0  0  0  0
 15 19  1  0  0  0  0
 16 46  1  0  0  0  0
 16 47  1  0  0  0  0
 17 20  1  0  0  0  0
 17 49  1  0  0  0  0
 17 50  1  0  0  0  0
 18 21  1  0  0  0  0
 18 51  1  0  0  0  0
 18 52  1  0  0  0  0
 20 24  2  0  0  0  0
 20 25  1  0  0  0  0
 21 26  2  0  0  0  0
 21 27  1  0  0  0  0
 22 23  1  0  0  0  0
 22 53  1  0  0  0  0
 22 54  1  0  0  0  0
 23 33  2  0  0  0  0
 23 34  1  0  0  0  0
 24 29  1  0  0  0  0
 24 55  1  0  0  0  0
 25 30  2  0  0  0  0
 25 56  1  0  0  0  0
 26 31  1  0  0  0  0
 26 57  1  0  0  0  0
 27 32  2  0  0  0  0
 27 58  1  0  0  0  0
 28 35  1  0  0  0  0
 28 59  1  0  0  0  0
 28 60  1  0  0  0  0
 29 36  2  0  0  0  0
 29 61  1  0  0  0  0
 30 36  1  0  0  0  0
 30 62  1  0  0  0  0
 31 37  2  0  0  0  0
 31 63  1  0  0  0  0
 32 37  1  0  0  0  0
 32 64  1  0  0  0  0
 33 38  1  0  0  0  0
 33 65  1  0  0  0  0
 34 39  2  0  0  0  0
 34 66  1  0  0  0  0
 35 68  1  0  0  0  0
 35 69  1  0  0  0  0
 35 70  1  0  0  0  0
 36 67  1  0  0  0  0
 37 71  1  0  0  0  0
 38 40  2  0  0  0  0
 38 72  1  0  0  0  0
 39 40  1  0  0  0  0
 39 73  1  0  0  0  0
 40 74  1  0  0  0  0
M  END
> <PUBCHEM_COMPOUND_CID>
102434456

> <PUBCHEM_CONFORMER_RMSD>
1.4

> <PUBCHEM_CONFORMER_DIVERSEORDER>
1
5
12
3
7
8
11
10
4
2
6
9

> <PUBCHEM_MMFF94_PARTIAL_CHARGES>
55
1 -0.34
10 0.28
11 0.28
12 0.28
13 0.28
14 0.28
15 0.74
16 0.28
17 0.42
18 0.42
19 0.66
2 -0.34
20 -0.14
21 -0.14
22 0.42
23 -0.14
24 -0.15
25 -0.15
26 -0.15
27 -0.15
28 0.28
29 -0.15
3 -0.56
30 -0.15
31 -0.15
32 -0.15
33 -0.15
34 -0.15
36 -0.15
37 -0.15
38 -0.15
39 -0.15
4 -0.56
40 -0.15
48 0.4
5 -0.56
55 0.15
56 0.15
57 0.15
58 0.15
6 -0.68
61 0.15
62 0.15
63 0.15
64 0.15
65 0.15
66 0.15
67 0.15
7 -0.56
71 0.15
72 0.15
73 0.15
74 0.15
8 -0.43
9 -0.57

> <PUBCHEM_EFFECTIVE_ROTOR_COUNT>
15.2

> <PUBCHEM_PHARMACOPHORE_FEATURES>
11
1 3 acceptor
1 4 acceptor
1 5 acceptor
1 6 acceptor
1 6 donor
1 7 acceptor
1 9 acceptor
6 20 24 25 29 30 36 rings
6 21 26 27 31 32 37 rings
6 23 33 34 38 39 40 rings
6 3 10 11 12 13 14 rings

> <PUBCHEM_HEAVY_ATOM_COUNT>
40

> <PUBCHEM_ATOM_DEF_STEREO_COUNT>
5

> <PUBCHEM_ATOM_UDEF_STEREO_COUNT>
0

> <PUBCHEM_BOND_DEF_STEREO_COUNT>
0

> <PUBCHEM_BOND_UDEF_STEREO_COUNT>
0

> <PUBCHEM_ISOTOPIC_ATOM_COUNT>
0

> <PUBCHEM_COMPONENT_COUNT>
1

> <PUBCHEM_CACTVS_TAUTO_COUNT>
1

> <PUBCHEM_CONFORMER_ID>
061B069800000001

> <PUBCHEM_MMFF94_ENERGY>
107.7847

> <PUBCHEM_FEATURE_SELFOVERLAP>
55.839

> <PUBCHEM_SHAPE_FINGERPRINT>
11445158 3 17775014491725071159
12422481 6 17899119787824504483
12988421 55 17556000726205127104
15351339 4 17041745501331195133
15775530 1 18335969909604731831
16090146 7 17037285907891221566
21133410 230 18335987566110349281
244849 19 18411691093302722997
3886686 26 17462530998019923929
50080093 196 15667016870501116545
5171179 24 18341883100097481319
57527358 35 15766709366447206397
9981440 41 17980160336195995045

> <PUBCHEM_SHAPE_MULTIPOLES>
767.55
13.28
8.41
3.57
4.79
4.97
-2.84
-4.68
-5.04
-1.61
-0.11
0.77
3.63
14.02

> <PUBCHEM_SHAPE_SELFOVERLAP>
1630.273

> <PUBCHEM_SHAPE_VOLUME>
425.7

> <PUBCHEM_COORDINATE_TYPE>
2
5
10

$$$$
