610352
  -OEChem-02172602383D

 30 30  0     0  0  0  0  0  0999 V2000
    2.8054   -0.6821    0.4509 O   0  0  0  0  0  0  0  0  0  0  0  0
   -2.7773    1.7940    0.4764 O   0  0  0  0  0  0  0  0  0  0  0  0
    2.7136   -0.1963   -1.8107 O   0  0  0  0  0  0  0  0  0  0  0  0
   -2.5090   -1.9765   -1.0436 O   0  0  0  0  0  0  0  0  0  0  0  0
   -0.5081    2.1239    0.2727 N   0  0  0  0  0  0  0  0  0  0  0  0
   -3.5974   -0.7472    0.6125 N   0  0  0  0  0  0  0  0  0  0  0  0
   -4.7063   -1.5695    0.6307 N   0  0  0  0  0  0  0  0  0  0  0  0
    0.9324    0.3699   -0.3533 C   0  0  0  0  0  0  0  0  0  0  0  0
    0.7681    1.6619   -0.0051 C   0  0  0  0  0  0  0  0  0  0  0  0
   -1.4584   -0.0719   -0.1554 C   0  0  0  0  0  0  0  0  0  0  0  0
   -0.2199   -0.5093   -0.4234 C   0  0  0  0  0  0  0  0  0  0  0  0
   -1.6575    1.3549    0.2254 C   0  0  0  0  0  0  0  0  0  0  0  0
    1.8361    2.7093    0.1359 C   0  0  0  0  0  0  0  0  0  0  0  0
    2.2489   -0.1946   -0.6847 C   0  0  0  0  0  0  0  0  0  0  0  0
   -2.5596   -1.0331   -0.2537 C   0  0  0  0  0  0  0  0  0  0  0  0
    4.1009   -1.2690    0.2902 C   0  0  0  0  0  0  0  0  0  0  0  0
    4.5881   -1.7644    1.6351 C   0  0  0  0  0  0  0  0  0  0  0  0
   -0.0284   -1.5430   -0.6987 H   0  0  0  0  0  0  0  0  0  0  0  0
   -0.6037    3.1020    0.5319 H   0  0  0  0  0  0  0  0  0  0  0  0
    2.8351    2.3195   -0.0809 H   0  0  0  0  0  0  0  0  0  0  0  0
    1.8510    3.1037    1.1576 H   0  0  0  0  0  0  0  0  0  0  0  0
    1.6492    3.5394   -0.5539 H   0  0  0  0  0  0  0  0  0  0  0  0
    4.0375   -2.1074   -0.4125 H   0  0  0  0  0  0  0  0  0  0  0  0
    4.7959   -0.5178   -0.1016 H   0  0  0  0  0  0  0  0  0  0  0  0
    5.5784   -2.2201    1.5489 H   0  0  0  0  0  0  0  0  0  0  0  0
    4.6394   -0.9399    2.3538 H   0  0  0  0  0  0  0  0  0  0  0  0
    3.8935   -2.5034    2.0481 H   0  0  0  0  0  0  0  0  0  0  0  0
   -3.5832    0.0324    1.2626 H   0  0  0  0  0  0  0  0  0  0  0  0
   -5.5166   -0.9765    0.4564 H   0  0  0  0  0  0  0  0  0  0  0  0
   -4.8067   -1.9091    1.5864 H   0  0  0  0  0  0  0  0  0  0  0  0
  1 14  1  0  0  0  0
  1 16  1  0  0  0  0
  2 12  2  0  0  0  0
  3 14  2  0  0  0  0
  4 15  2  0  0  0  0
  5  9  1  0  0  0  0
  5 12  1  0  0  0  0
  5 19  1  0  0  0  0
  6  7  1  0  0  0  0
  6 15  1  0  0  0  0
  6 28  1  0  0  0  0
  7 29  1  0  0  0  0
  7 30  1  0  0  0  0
  8  9  2  0  0  0  0
  8 11  1  0  0  0  0
  8 14  1  0  0  0  0
  9 13  1  0  0  0  0
 10 11  2  0  0  0  0
 10 12  1  0  0  0  0
 10 15  1  0  0  0  0
 11 18  1  0  0  0  0
 13 20  1  0  0  0  0
 13 21  1  0  0  0  0
 13 22  1  0  0  0  0
 16 17  1  0  0  0  0
 16 23  1  0  0  0  0
 16 24  1  0  0  0  0
 17 25  1  0  0  0  0
 17 26  1  0  0  0  0
 17 27  1  0  0  0  0
M  END
> <PUBCHEM_COMPOUND_CID>
610352

> <PUBCHEM_CONFORMER_RMSD>
0.6

> <PUBCHEM_CONFORMER_DIVERSEORDER>
2
40
5
29
25
44
24
39
27
7
41
14
19
10
6
1
21
28
17
11
37
43
30
22
38
16
9
20
26
31
23
36
8
13
18
46
32
35
3
33
42
12
15
4
45
34

> <PUBCHEM_MMFF94_PARTIAL_CHARGES>
21
1 -0.43
10 0.03
11 -0.15
12 0.62
13 0.14
14 0.71
15 0.62
16 0.28
18 0.15
19 0.37
2 -0.57
28 0.37
29 0.36
3 -0.57
30 0.36
4 -0.57
5 -0.54
6 -0.42
7 -0.73
8 0.01
9 -0.03

> <PUBCHEM_EFFECTIVE_ROTOR_COUNT>
5

> <PUBCHEM_PHARMACOPHORE_FEATURES>
7
1 2 acceptor
1 3 acceptor
1 4 acceptor
1 5 donor
1 6 donor
1 7 donor
6 5 8 9 10 11 12 rings

> <PUBCHEM_HEAVY_ATOM_COUNT>
17

> <PUBCHEM_ATOM_DEF_STEREO_COUNT>
0

> <PUBCHEM_ATOM_UDEF_STEREO_COUNT>
0

> <PUBCHEM_BOND_DEF_STEREO_COUNT>
0

> <PUBCHEM_BOND_UDEF_STEREO_COUNT>
0

> <PUBCHEM_ISOTOPIC_ATOM_COUNT>
0

> <PUBCHEM_COMPONENT_COUNT>
1

> <PUBCHEM_CACTVS_TAUTO_COUNT>
7

> <PUBCHEM_CONFORMER_ID>
0009503000000002

> <PUBCHEM_MMFF94_ENERGY>
40.7287

> <PUBCHEM_FEATURE_SELFOVERLAP>
37.031

> <PUBCHEM_SHAPE_FINGERPRINT>
10062212 137 18260825947483066547
10610426 29 17676759878209590676
11578080 2 17823114797231221820
12553582 1 18342742935349354374
12824470 246 17894905192367669330
13083527 12 17913461787558842382
13140716 1 18341615897508397169
14178342 30 18057894549574317346
14251764 38 12174248413382147723
14420673 8 17476352804549652762
15042514 8 18193840340485961224
15342168 16 13973672971132449770
15375462 189 18335984254827330726
16945 1 18198916811494318085
19784866 240 17603585188589671858
20600515 1 18126565618309515112
20645477 70 18198909291491710903
20871998 22 18201450155193672782
21501502 16 18341618156429007997
21501925 9 18342453768133344536
21650355 55 18195513819191178728
22112679 90 18335989666586305060
2255824 54 18192158302665316556
232386 152 18408887300403175446
2334 1 18270122443061175037
23366157 5 18188493596309378004
23402539 116 18056742248735972269
23419403 2 17698117959740083656
23557571 272 17988651753107214494
23559900 14 17985555451386425702
2748010 2 18342455971657744173
3286 77 18259984894107328639
43471831 8 17907568474165092400
5104073 3 18271256035939825651
5902787 121 18411982438552064512
7364860 26 17987246710064348932
81228 2 17770232561174310960
90316 7 18193552268983173144

> <PUBCHEM_SHAPE_MULTIPOLES>
311.43
7.63
2.51
1.09
1.02
1.22
-0.14
-6.14
2.56
0.01
0.47
0.84
-0.4
-0.92

> <PUBCHEM_SHAPE_SELFOVERLAP>
644.878

> <PUBCHEM_SHAPE_VOLUME>
177.9

> <PUBCHEM_COORDINATE_TYPE>
2
5
10

$$$$
