77141
  -OEChem-02172602443D

 43 45  0     0  0  0  0  0  0999 V2000
   -3.7487   -3.0424    1.9079 Cl  0  0  0  0  0  0  0  0  0  0  0  0
    5.2140   -0.1911    1.9706 Cl  0  0  0  0  0  0  0  0  0  0  0  0
    0.2467   -0.0594    0.5997 N   0  0  0  0  0  0  0  0  0  0  0  0
   -2.0234    3.5868    0.1501 N   0  0  0  0  0  0  0  0  0  0  0  0
   -0.0195    0.7513    1.7955 C   0  0  0  0  0  0  0  0  0  0  0  0
   -1.1801    1.7130    1.5336 C   0  0  0  0  0  0  0  0  0  0  0  0
   -0.8069   -0.9001    0.1592 C   0  0  0  0  0  0  0  0  0  0  0  0
    1.5978   -0.1357    0.1762 C   0  0  0  0  0  0  0  0  0  0  0  0
   -0.9122    2.6689    0.3691 C   0  0  0  0  0  0  0  0  0  0  0  0
   -1.0163   -1.2058   -1.2009 C   0  0  0  0  0  0  0  0  0  0  0  0
    1.9625   -0.2587   -1.1799 C   0  0  0  0  0  0  0  0  0  0  0  0
   -1.6832   -1.4916    1.1008 C   0  0  0  0  0  0  0  0  0  0  0  0
    2.6428   -0.1162    1.1312 C   0  0  0  0  0  0  0  0  0  0  0  0
   -0.2635   -0.5969   -2.3031 C   0  0  0  0  0  0  0  0  0  0  0  0
    1.0105   -0.1919   -2.2941 C   0  0  0  0  0  0  0  0  0  0  0  0
   -2.0748   -2.0603   -1.5743 C   0  0  0  0  0  0  0  0  0  0  0  0
    3.3249   -0.3438   -1.5364 C   0  0  0  0  0  0  0  0  0  0  0  0
   -2.7202   -2.3444    0.7180 C   0  0  0  0  0  0  0  0  0  0  0  0
    3.9865   -0.2120    0.7650 C   0  0  0  0  0  0  0  0  0  0  0  0
   -1.7042    4.5383   -0.9159 C   0  0  0  0  0  0  0  0  0  0  0  0
   -3.2448    2.8490   -0.1775 C   0  0  0  0  0  0  0  0  0  0  0  0
   -2.9161   -2.6301   -0.6230 C   0  0  0  0  0  0  0  0  0  0  0  0
    4.3284   -0.3269   -0.5721 C   0  0  0  0  0  0  0  0  0  0  0  0
   -0.1874    0.1405    2.6892 H   0  0  0  0  0  0  0  0  0  0  0  0
    0.8312    1.3996    2.0440 H   0  0  0  0  0  0  0  0  0  0  0  0
   -2.0961    1.1381    1.3803 H   0  0  0  0  0  0  0  0  0  0  0  0
   -1.3450    2.3019    2.4458 H   0  0  0  0  0  0  0  0  0  0  0  0
   -0.6995    2.1099   -0.5498 H   0  0  0  0  0  0  0  0  0  0  0  0
   -0.0080    3.2449    0.6052 H   0  0  0  0  0  0  0  0  0  0  0  0
   -1.5501   -1.3200    2.1661 H   0  0  0  0  0  0  0  0  0  0  0  0
    2.4099   -0.0690    2.1941 H   0  0  0  0  0  0  0  0  0  0  0  0
   -0.8101   -0.4887   -3.2389 H   0  0  0  0  0  0  0  0  0  0  0  0
    1.4062    0.2157   -3.2233 H   0  0  0  0  0  0  0  0  0  0  0  0
   -2.2569   -2.2884   -2.6235 H   0  0  0  0  0  0  0  0  0  0  0  0
    3.6186   -0.4208   -2.5822 H   0  0  0  0  0  0  0  0  0  0  0  0
   -0.8076    5.1147   -0.6620 H   0  0  0  0  0  0  0  0  0  0  0  0
   -2.5158    5.2637   -1.0412 H   0  0  0  0  0  0  0  0  0  0  0  0
   -1.5339    4.0402   -1.8774 H   0  0  0  0  0  0  0  0  0  0  0  0
   -3.6530    2.3280    0.6936 H   0  0  0  0  0  0  0  0  0  0  0  0
   -4.0369    3.5415   -0.4878 H   0  0  0  0  0  0  0  0  0  0  0  0
   -3.0949    2.1300   -0.9914 H   0  0  0  0  0  0  0  0  0  0  0  0
   -3.7186   -3.2874   -0.9462 H   0  0  0  0  0  0  0  0  0  0  0  0
    5.3672   -0.3988   -0.8824 H   0  0  0  0  0  0  0  0  0  0  0  0
  1 18  1  0  0  0  0
  2 19  1  0  0  0  0
  3  5  1  0  0  0  0
  3  7  1  0  0  0  0
  3  8  1  0  0  0  0
  4  9  1  0  0  0  0
  4 20  1  0  0  0  0
  4 21  1  0  0  0  0
  5  6  1  0  0  0  0
  5 24  1  0  0  0  0
  5 25  1  0  0  0  0
  6  9  1  0  0  0  0
  6 26  1  0  0  0  0
  6 27  1  0  0  0  0
  7 10  2  0  0  0  0
  7 12  1  0  0  0  0
  8 11  2  0  0  0  0
  8 13  1  0  0  0  0
  9 28  1  0  0  0  0
  9 29  1  0  0  0  0
 10 14  1  0  0  0  0
 10 16  1  0  0  0  0
 11 15  1  0  0  0  0
 11 17  1  0  0  0  0
 12 18  2  0  0  0  0
 12 30  1  0  0  0  0
 13 19  2  0  0  0  0
 13 31  1  0  0  0  0
 14 15  2  0  0  0  0
 14 32  1  0  0  0  0
 15 33  1  0  0  0  0
 16 22  2  0  0  0  0
 16 34  1  0  0  0  0
 17 23  2  0  0  0  0
 17 35  1  0  0  0  0
 18 22  1  0  0  0  0
 19 23  1  0  0  0  0
 20 36  1  0  0  0  0
 20 37  1  0  0  0  0
 20 38  1  0  0  0  0
 21 39  1  0  0  0  0
 21 40  1  0  0  0  0
 21 41  1  0  0  0  0
 22 42  1  0  0  0  0
 23 43  1  0  0  0  0
M  END
> <PUBCHEM_COMPOUND_CID>
77141

> <PUBCHEM_CONFORMER_RMSD>
0.8

> <PUBCHEM_CONFORMER_DIVERSEORDER>
2
5
6
3
4
1

> <PUBCHEM_MMFF94_PARTIAL_CHARGES>
30
1 -0.18
10 0.03
11 0.03
12 -0.15
13 -0.15
14 -0.18
15 -0.18
16 -0.15
17 -0.15
18 0.18
19 0.18
2 -0.18
20 0.27
21 0.27
22 -0.15
23 -0.15
3 -0.57
30 0.15
31 0.15
32 0.15
33 0.15
34 0.15
35 0.15
4 -0.81
42 0.15
43 0.15
5 0.37
7 0.1
8 0.1
9 0.27

> <PUBCHEM_EFFECTIVE_ROTOR_COUNT>
4.2

> <PUBCHEM_PHARMACOPHORE_FEATURES>
5
1 3 cation
1 4 cation
6 7 10 12 16 18 22 rings
6 8 11 13 17 19 23 rings
7 3 7 8 10 11 14 15 rings

> <PUBCHEM_HEAVY_ATOM_COUNT>
23

> <PUBCHEM_ATOM_DEF_STEREO_COUNT>
0

> <PUBCHEM_ATOM_UDEF_STEREO_COUNT>
0

> <PUBCHEM_BOND_DEF_STEREO_COUNT>
0

> <PUBCHEM_BOND_UDEF_STEREO_COUNT>
0

> <PUBCHEM_ISOTOPIC_ATOM_COUNT>
0

> <PUBCHEM_COMPONENT_COUNT>
1

> <PUBCHEM_CACTVS_TAUTO_COUNT>
1

> <PUBCHEM_CONFORMER_ID>
00012D5500000002

> <PUBCHEM_MMFF94_ENERGY>
89.893

> <PUBCHEM_FEATURE_SELFOVERLAP>
25.387

> <PUBCHEM_SHAPE_FINGERPRINT>
10165383 225 16615396797890569457
11578080 2 16627957855070485753
12035758 1 18202290212606243267
121448 382 18197205954569847369
12160290 23 18270691865503496249
12403814 3 17417803015420880914
12422481 6 17986947647011835184
12788726 201 18188226388707057203
13149001 5 17916002617102546392
133893 2 17478609474470181359
13583140 156 18130494250922946250
13681431 1 17908985752920957001
13899415 180 18054769939755923839
13965767 371 17201949026812018063
14178342 30 18261108531199766546
14840074 17 17479715557609515120
15163728 17 17617397090417693756
15219462 58 17976217423374397026
17357779 13 17774706658728860621
173720 79 18117269268517415665
17980427 26 12929006125489457549
1813 80 18126576840536430411
18769570 83 18412261740633863595
20197701 30 17834099862720531637
20567600 347 17907298746034498025
20600515 1 18126582333878834019
20691752 17 17844536697980679422
20739085 24 17840885275292870762
21285901 2 18059861645149585391
21304253 335 16412986779611838123
21304303 282 17975381690999414629
22182313 1 17418377974424446180
22907989 373 18059311897646686980
23419403 2 17273960484453112745
238 59 16556494865042837884
2748010 2 17131844123075870198
3187 122 18342744052008760753
3380486 145 17632291323902924275
4409770 3 18201159862548941567
59554788 62 17632020839600305399
81228 2 18199212670458629307
90316 7 18130795602148563099
9981440 41 17129554883963940818

> <PUBCHEM_SHAPE_MULTIPOLES>
467.11
7.17
4.18
2.27
8.08
5.79
-0.39
-3.49
2.91
-7.45
0.09
0.53
-0.78
0.74

> <PUBCHEM_SHAPE_SELFOVERLAP>
979.983

> <PUBCHEM_SHAPE_VOLUME>
264.7

> <PUBCHEM_COORDINATE_TYPE>
2
5
10

$$$$
