5281786
  -OEChem-02172602483D

 33 33  0     1  0  0  0  0  0999 V2000
   -2.1818   -0.1007    0.0422 O   0  0  0  0  0  0  0  0  0  0  0  0
   -4.4879    2.5331   -0.2194 O   0  0  0  0  0  0  0  0  0  0  0  0
   -5.2013   -2.8832    0.4663 O   0  0  0  0  0  0  0  0  0  0  0  0
   -3.0618    2.0790    1.4874 O   0  0  0  0  0  0  0  0  0  0  0  0
    6.0224    1.3816   -0.0259 O   0  0  0  0  0  0  0  0  0  0  0  0
    6.3839   -1.3220    0.5048 O   0  0  0  0  0  0  0  0  0  0  0  0
   -3.5165   -2.3693   -0.9739 O   0  0  0  0  0  0  0  0  0  0  0  0
   -1.3416    1.7762   -1.0110 O   0  0  0  0  0  0  0  0  0  0  0  0
   -3.5118    0.3556   -0.1675 C   0  0  1  0  0  0  0  0  0  0  0  0
   -4.4714   -0.6474    0.4707 C   0  0  0  0  0  0  0  0  0  0  0  0
    2.5967    0.1636   -0.2243 C   0  0  0  0  0  0  0  0  0  0  0  0
   -3.6473    1.7221    0.4734 C   0  0  0  0  0  0  0  0  0  0  0  0
   -4.3164   -2.0320   -0.1143 C   0  0  0  0  0  0  0  0  0  0  0  0
    1.2447    0.6892   -0.4828 C   0  0  0  0  0  0  0  0  0  0  0  0
    3.6773    1.0303   -0.2477 C   0  0  0  0  0  0  0  0  0  0  0  0
   -1.1930    0.7115   -0.4325 C   0  0  0  0  0  0  0  0  0  0  0  0
    2.7608   -1.1869    0.0374 C   0  0  0  0  0  0  0  0  0  0  0  0
    0.1079    0.0751   -0.1251 C   0  0  0  0  0  0  0  0  0  0  0  0
    4.9573    0.5329   -0.0024 C   0  0  0  0  0  0  0  0  0  0  0  0
    5.1391   -0.8245    0.2625 C   0  0  0  0  0  0  0  0  0  0  0  0
    4.0408   -1.6843    0.2823 C   0  0  0  0  0  0  0  0  0  0  0  0
   -3.6884    0.4260   -1.2481 H   0  0  0  0  0  0  0  0  0  0  0  0
   -4.2684   -0.7230    1.5459 H   0  0  0  0  0  0  0  0  0  0  0  0
   -5.5060   -0.3172    0.3275 H   0  0  0  0  0  0  0  0  0  0  0  0
    1.2089    1.6497   -0.9923 H   0  0  0  0  0  0  0  0  0  0  0  0
    3.5450    2.0899   -0.4522 H   0  0  0  0  0  0  0  0  0  0  0  0
    1.9391   -1.8958    0.0417 H   0  0  0  0  0  0  0  0  0  0  0  0
    0.0788   -0.8682    0.4074 H   0  0  0  0  0  0  0  0  0  0  0  0
    4.1694   -2.7447    0.4829 H   0  0  0  0  0  0  0  0  0  0  0  0
   -4.5649    3.4191    0.1947 H   0  0  0  0  0  0  0  0  0  0  0  0
   -5.1205   -3.7935    0.1098 H   0  0  0  0  0  0  0  0  0  0  0  0
    6.8269    0.8683    0.1640 H   0  0  0  0  0  0  0  0  0  0  0  0
    6.3165   -2.2785    0.6680 H   0  0  0  0  0  0  0  0  0  0  0  0
  1  9  1  0  0  0  0
  1 16  1  0  0  0  0
  2 12  1  0  0  0  0
  2 30  1  0  0  0  0
  3 13  1  0  0  0  0
  3 31  1  0  0  0  0
  4 12  2  0  0  0  0
  5 19  1  0  0  0  0
  5 32  1  0  0  0  0
  6 20  1  0  0  0  0
  6 33  1  0  0  0  0
  7 13  2  0  0  0  0
  8 16  2  0  0  0  0
  9 10  1  0  0  0  0
  9 12  1  0  0  0  0
  9 22  1  0  0  0  0
 10 13  1  0  0  0  0
 10 23  1  0  0  0  0
 10 24  1  0  0  0  0
 11 14  1  0  0  0  0
 11 15  2  0  0  0  0
 11 17  1  0  0  0  0
 14 18  2  0  0  0  0
 14 25  1  0  0  0  0
 15 19  1  0  0  0  0
 15 26  1  0  0  0  0
 16 18  1  0  0  0  0
 17 21  2  0  0  0  0
 17 27  1  0  0  0  0
 18 28  1  0  0  0  0
 19 20  2  0  0  0  0
 20 21  1  0  0  0  0
 21 29  1  0  0  0  0
M  END
> <PUBCHEM_COMPOUND_CID>
5281786

> <PUBCHEM_CONFORMER_RMSD>
0.8

> <PUBCHEM_CONFORMER_DIVERSEORDER>
1
131
72
70
15
95
89
114
4
96
93
92
134
59
74
83
35
103
11
57
50
63
125
81
52
42
110
69
55
123
41
58
122
31
9
37
34
39
135
75
43
6
24
32
62
17
67
112
30
28
84
44
128
38
106
53
127
56
107
108
21
54
87
86
77
79
121
61
129
104
3
126
51
46
109
7
64
73
14
71
94
47
16
40
78
102
119
18
60
10
100
116
5
48
133
13
80
20
22
99
29
91
65
124
68
120
36
19
105
26
97
111
12
85
115
98
117
76
2
132
88
90
66
25
136
27
45
33
82
23
118
113
49
130
8
101

> <PUBCHEM_MMFF94_PARTIAL_CHARGES>
30
1 -0.43
10 0.06
11 0.03
12 0.66
13 0.66
14 -0.18
15 -0.15
16 0.71
17 -0.15
18 -0.14
19 0.08
2 -0.65
20 0.08
21 -0.15
25 0.15
26 0.15
27 0.15
28 0.15
29 0.15
3 -0.65
30 0.5
31 0.5
32 0.45
33 0.45
4 -0.57
5 -0.53
6 -0.53
7 -0.57
8 -0.57
9 0.34

> <PUBCHEM_EFFECTIVE_ROTOR_COUNT>
7

> <PUBCHEM_PHARMACOPHORE_FEATURES>
10
1 2 acceptor
1 3 acceptor
1 4 acceptor
1 5 donor
1 6 donor
1 7 acceptor
1 8 acceptor
3 2 4 12 anion
3 3 7 13 anion
6 11 15 17 19 20 21 rings

> <PUBCHEM_HEAVY_ATOM_COUNT>
21

> <PUBCHEM_ATOM_DEF_STEREO_COUNT>
1

> <PUBCHEM_ATOM_UDEF_STEREO_COUNT>
0

> <PUBCHEM_BOND_DEF_STEREO_COUNT>
1

> <PUBCHEM_BOND_UDEF_STEREO_COUNT>
0

> <PUBCHEM_ISOTOPIC_ATOM_COUNT>
0

> <PUBCHEM_COMPONENT_COUNT>
1

> <PUBCHEM_CACTVS_TAUTO_COUNT>
10

> <PUBCHEM_CONFORMER_ID>
005097FA00000001

> <PUBCHEM_MMFF94_ENERGY>
45.6267

> <PUBCHEM_FEATURE_SELFOVERLAP>
50.868

> <PUBCHEM_SHAPE_FINGERPRINT>
10595046 47 18336548308671652220
10912923 1 18334297565551849160
11315181 36 18408323289234311089
11545043 162 18202278100212925370
11552529 35 18273491286727527799
12107183 9 17834959672344779378
12596602 18 18413670214823459808
12616971 3 17095253505052480948
12760667 363 18339922723349308399
13073987 5 18411697708121759136
13167823 11 18410009944503508302
13583140 156 17489579043897121915
13631057 29 18339641256350368747
14251732 16 18338516447581295760
14341114 176 18342464728805585449
14565420 104 16622962491090684793
14844126 61 18341613746331045123
15196674 1 18408885127155076206
15788980 27 17022904527759098396
15880784 105 18408888425705686768
17834072 33 18409731776909786056
17844677 252 18341900701131974864
17857418 61 18408320007800182230
18222031 100 16660642964837209646
19141452 34 18335141934515654533
20281475 54 18334859432672456076
21065198 48 18410573981267927556
21130935 74 18410286979354772410
21236236 1 18410573989731527923
21673915 165 18408885148303241846
220451 1 18262246534144698172
23081809 10 17967254196168820238
23402539 116 17821445742352393836
23522609 53 17971502657702182980
23559900 14 18340476881140600137
26918003 58 18272084946899515848
4073 2 18114187449378707250
4214541 1 18411136913741000661
5104073 3 18413101750100200208
542803 24 18060700559652818444
559249 180 18262234426753164547
5924683 9 18410012143874605147
633830 44 16660656119541743909
6431902 208 18263081170744902459
67856867 119 18263367052041405036
7495541 125 18131064974497998344
77779 3 18411138013505758108
7970288 3 18120655992497820411

> <PUBCHEM_SHAPE_MULTIPOLES>
385.22
15.07
2.58
0.82
9.5
0.66
-0.06
3.9
-2.04
-3.87
-0.1
-0.47
-0.14
-0.77

> <PUBCHEM_SHAPE_SELFOVERLAP>
807.511

> <PUBCHEM_SHAPE_VOLUME>
214.9

> <PUBCHEM_COORDINATE_TYPE>
2
5
10

$$$$
