11956490
  -OEChem-02172602463D

 60 64  0     0  0  0  0  0  0999 V2000
   -5.9127    2.1477   -1.6159 F   0  0  0  0  0  0  0  0  0  0  0  0
   -4.7242    3.8799   -1.0766 F   0  0  0  0  0  0  0  0  0  0  0  0
   -4.1779    2.6871   -2.8109 F   0  0  0  0  0  0  0  0  0  0  0  0
   -0.0044    3.5614   -0.7692 O   0  0  0  0  0  0  0  0  0  0  0  0
   -3.9862   -1.3419    1.3336 N   0  0  0  0  0  0  0  0  0  0  0  0
   -0.2529    1.5904    0.4884 N   0  0  0  0  0  0  0  0  0  0  0  0
   -4.0835   -3.1994    2.5613 N   0  0  0  0  0  0  0  0  0  0  0  0
    4.6603    0.5393    1.2402 N   0  0  0  0  0  0  0  0  0  0  0  0
    3.8275    4.0989    0.6765 N   0  0  0  0  0  0  0  0  0  0  0  0
    3.5718   -1.0801   -0.0633 N   0  0  0  0  0  0  0  0  0  0  0  0
    5.4562   -1.6668    1.3195 N   0  0  0  0  0  0  0  0  0  0  0  0
    1.6404   -4.0240   -3.2247 N   0  0  0  0  0  0  0  0  0  0  0  0
   -3.4639   -0.2134    0.7284 C   0  0  0  0  0  0  0  0  0  0  0  0
   -1.5952    1.2578    0.3035 C   0  0  0  0  0  0  0  0  0  0  0  0
   -3.7527    1.7314   -0.6756 C   0  0  0  0  0  0  0  0  0  0  0  0
   -2.1219    0.1192    0.9131 C   0  0  0  0  0  0  0  0  0  0  0  0
   -4.2792    0.5928   -0.0660 C   0  0  0  0  0  0  0  0  0  0  0  0
   -2.4106    2.0639   -0.4909 C   0  0  0  0  0  0  0  0  0  0  0  0
   -5.2784   -1.7930    1.2455 C   0  0  0  0  0  0  0  0  0  0  0  0
    1.8864    2.7536    0.3186 C   0  0  0  0  0  0  0  0  0  0  0  0
   -3.3100   -2.2249    2.1372 C   0  0  0  0  0  0  0  0  0  0  0  0
   -4.6246    2.5933   -1.5244 C   0  0  0  0  0  0  0  0  0  0  0  0
   -5.3121   -2.9362    2.0089 C   0  0  0  0  0  0  0  0  0  0  0  0
    0.4452    2.6849   -0.0389 C   0  0  0  0  0  0  0  0  0  0  0  0
    3.9218    1.6973    0.9384 C   0  0  0  0  0  0  0  0  0  0  0  0
    2.5747    1.6009    0.6071 C   0  0  0  0  0  0  0  0  0  0  0  0
    4.4959    2.9581    0.9588 C   0  0  0  0  0  0  0  0  0  0  0  0
    2.5201    3.9657    0.3589 C   0  0  0  0  0  0  0  0  0  0  0  0
   -6.4544   -3.8268    2.2643 C   0  0  0  0  0  0  0  0  0  0  0  0
    5.9394    3.1262    1.3068 C   0  0  0  0  0  0  0  0  0  0  0  0
    4.5580   -0.8012    0.8111 C   0  0  0  0  0  0  0  0  0  0  0  0
    3.5027   -2.3702   -0.4518 C   0  0  0  0  0  0  0  0  0  0  0  0
    2.4478   -2.6721   -1.3895 C   0  0  0  0  0  0  0  0  0  0  0  0
    4.3627   -3.3527   -0.0052 C   0  0  0  0  0  0  0  0  0  0  0  0
    5.3292   -2.9390    0.8884 C   0  0  0  0  0  0  0  0  0  0  0  0
    1.2585   -1.9512   -1.3885 C   0  0  0  0  0  0  0  0  0  0  0  0
    2.5876   -3.6898   -2.3198 C   0  0  0  0  0  0  0  0  0  0  0  0
    0.2603   -2.2654   -2.3041 C   0  0  0  0  0  0  0  0  0  0  0  0
    0.4984   -3.3012   -3.1932 C   0  0  0  0  0  0  0  0  0  0  0  0
   -1.4508   -0.4792    1.5211 H   0  0  0  0  0  0  0  0  0  0  0  0
   -5.3268    0.3680   -0.2336 H   0  0  0  0  0  0  0  0  0  0  0  0
   -2.0680    2.9586   -0.9916 H   0  0  0  0  0  0  0  0  0  0  0  0
    0.2390    0.9658    1.1205 H   0  0  0  0  0  0  0  0  0  0  0  0
   -6.0635   -1.3115    0.6807 H   0  0  0  0  0  0  0  0  0  0  0  0
   -2.2646   -2.1436    2.3997 H   0  0  0  0  0  0  0  0  0  0  0  0
    2.0866    0.6371    0.5913 H   0  0  0  0  0  0  0  0  0  0  0  0
    2.0131    4.9001    0.1436 H   0  0  0  0  0  0  0  0  0  0  0  0
    5.4859    0.6921    1.8101 H   0  0  0  0  0  0  0  0  0  0  0  0
   -6.6725   -3.8697    3.3359 H   0  0  0  0  0  0  0  0  0  0  0  0
   -6.2322   -4.8411    1.9184 H   0  0  0  0  0  0  0  0  0  0  0  0
   -7.3563   -3.4828    1.7482 H   0  0  0  0  0  0  0  0  0  0  0  0
    6.1246    2.8207    2.3416 H   0  0  0  0  0  0  0  0  0  0  0  0
    6.2431    4.1745    1.2130 H   0  0  0  0  0  0  0  0  0  0  0  0
    6.5728    2.5402    0.6330 H   0  0  0  0  0  0  0  0  0  0  0  0
    4.3034   -4.3941   -0.2945 H   0  0  0  0  0  0  0  0  0  0  0  0
    6.0471   -3.6410    1.2990 H   0  0  0  0  0  0  0  0  0  0  0  0
    1.0722   -1.1500   -0.6793 H   0  0  0  0  0  0  0  0  0  0  0  0
    3.4899   -4.2873   -2.4066 H   0  0  0  0  0  0  0  0  0  0  0  0
   -0.6761   -1.7192   -2.3185 H   0  0  0  0  0  0  0  0  0  0  0  0
   -0.2489   -3.5864   -3.9264 H   0  0  0  0  0  0  0  0  0  0  0  0
  1 22  1  0  0  0  0
  2 22  1  0  0  0  0
  3 22  1  0  0  0  0
  4 24  2  0  0  0  0
  5 13  1  0  0  0  0
  5 19  1  0  0  0  0
  5 21  1  0  0  0  0
  6 14  1  0  0  0  0
  6 24  1  0  0  0  0
  6 43  1  0  0  0  0
  7 21  2  0  0  0  0
  7 23  1  0  0  0  0
  8 25  1  0  0  0  0
  8 31  1  0  0  0  0
  8 48  1  0  0  0  0
  9 27  1  0  0  0  0
  9 28  2  0  0  0  0
 10 31  1  0  0  0  0
 10 32  2  0  0  0  0
 11 31  2  0  0  0  0
 11 35  1  0  0  0  0
 12 37  1  0  0  0  0
 12 39  2  0  0  0  0
 13 16  1  0  0  0  0
 13 17  2  0  0  0  0
 14 16  2  0  0  0  0
 14 18  1  0  0  0  0
 15 17  1  0  0  0  0
 15 18  2  0  0  0  0
 15 22  1  0  0  0  0
 16 40  1  0  0  0  0
 17 41  1  0  0  0  0
 18 42  1  0  0  0  0
 19 23  2  0  0  0  0
 19 44  1  0  0  0  0
 20 24  1  0  0  0  0
 20 26  2  0  0  0  0
 20 28  1  0  0  0  0
 21 45  1  0  0  0  0
 23 29  1  0  0  0  0
 25 26  1  0  0  0  0
 25 27  2  0  0  0  0
 26 46  1  0  0  0  0
 27 30  1  0  0  0  0
 28 47  1  0  0  0  0
 29 49  1  0  0  0  0
 29 50  1  0  0  0  0
 29 51  1  0  0  0  0
 30 52  1  0  0  0  0
 30 53  1  0  0  0  0
 30 54  1  0  0  0  0
 32 33  1  0  0  0  0
 32 34  1  0  0  0  0
 33 36  1  0  0  0  0
 33 37  2  0  0  0  0
 34 35  2  0  0  0  0
 34 55  1  0  0  0  0
 35 56  1  0  0  0  0
 36 38  2  0  0  0  0
 36 57  1  0  0  0  0
 37 58  1  0  0  0  0
 38 39  1  0  0  0  0
 38 59  1  0  0  0  0
 39 60  1  0  0  0  0
M  END
> <PUBCHEM_COMPOUND_CID>
11956490

> <PUBCHEM_CONFORMER_RMSD>
1.2

> <PUBCHEM_CONFORMER_DIVERSEORDER>
3
492
473
596
160
383
148
505
372
470
106
244
16
84
388
37
85
163
225
403
526
363
471
272
355
608
597
58
242
316
240
8
134
507
53
416
512
228
65
14
393
451
543
502
306
52
435
56
504
203
282
378
550
80
559
522
549
115
568
29
483
235
51
239
145
7
89
44
248
299
9
454
269
135
63
484
427
516
528
47
341
18
156
38
39
255
292
475
555
610
117
356
509
4
207
535
517
523
238
2
150
101
233
149
92
81
155
457
43
19
537
90
86
319
582
1
289
10
24
287
206
28
508
26
551
118
20
519
76
222
169
466
83
218
31
296
478
425
79
532
6
253
338
186
74
11
236
22
176
32
200
71
12
214
226
88
23
189
35
57
77
50
165
46
15
34
108

> <PUBCHEM_MMFF94_PARTIAL_CHARGES>
53
1 -0.34
10 -0.62
11 -0.62
12 -0.62
13 -0.02
14 0.12
15 -0.14
16 -0.15
17 -0.15
18 -0.15
19 -0.3
2 -0.34
20 0.09
21 0.04
22 1.16
23 0.05
24 0.54
25 0.1
26 -0.15
27 0.17
28 0.16
29 0.18
3 -0.34
30 0.14
31 0.72
32 0.31
34 -0.15
35 0.16
36 -0.15
37 0.16
38 -0.15
39 0.16
4 -0.57
40 0.15
41 0.15
42 0.15
43 0.37
44 0.15
45 0.15
46 0.15
47 0.15
48 0.4
5 0.33
55 0.15
56 0.15
57 0.15
58 0.15
59 0.15
6 -0.55
60 0.15
7 -0.57
8 -0.6
9 -0.62

> <PUBCHEM_EFFECTIVE_ROTOR_COUNT>
8

> <PUBCHEM_PHARMACOPHORE_FEATURES>
13
1 10 acceptor
1 12 acceptor
1 4 acceptor
1 6 donor
1 8 donor
1 9 acceptor
3 5 7 21 cation
4 8 10 11 31 cation
5 5 7 19 21 23 rings
6 10 11 31 32 34 35 rings
6 12 33 36 37 38 39 rings
6 13 14 15 16 17 18 rings
6 9 20 25 26 27 28 rings

> <PUBCHEM_HEAVY_ATOM_COUNT>
39

> <PUBCHEM_ATOM_DEF_STEREO_COUNT>
0

> <PUBCHEM_ATOM_UDEF_STEREO_COUNT>
0

> <PUBCHEM_BOND_DEF_STEREO_COUNT>
0

> <PUBCHEM_BOND_UDEF_STEREO_COUNT>
0

> <PUBCHEM_ISOTOPIC_ATOM_COUNT>
0

> <PUBCHEM_COMPONENT_COUNT>
1

> <PUBCHEM_CACTVS_TAUTO_COUNT>
6

> <PUBCHEM_CONFORMER_ID>
00B6710A00000003

> <PUBCHEM_MMFF94_ENERGY>
123.4031

> <PUBCHEM_FEATURE_SELFOVERLAP>
65.974

> <PUBCHEM_SHAPE_FINGERPRINT>
10258939 38 18043528524346781489
11028528 32 16536228486236111643
11828532 37 18114188480228828563
12202916 173 17979896234367154406
12786520 15 15403054305212079871
12977781 61 18408891728857362151
131258 38 17604978236064051314
1361 2 17986653892818213220
1361 87 18194414294462437358
140371 6 18126008156960216752
14725015 67 16396630087874531952
150020 26 18341330075892654368
15264996 74 17486741295065773878
15351339 4 16254723372004125606
15392192 29 17981619169382921376
15664458 18 17832712649241751788
15775530 1 18336281088981976285
19301676 85 17976531720375950163
19301679 30 18118138089742640707
19611394 137 18338524019767517882
1979834 28 18059311948885666163
23559900 14 18336535028607062200
23572383 38 18339359634980844567
255183 313 17696475452471201728
4015057 19 18270667663690272277
4435113 14 18337107873985083661
49967989 163 16541899814774592878
50009960 94 17823953750357090906
50150288 127 16771527732444335172
5309563 4 17840296728152042836
613672 6 18054510210066601382
6698420 124 18265329518075197809

> <PUBCHEM_SHAPE_MULTIPOLES>
735.06
14.73
7.13
2.69
8.35
0.07
1.49
-2.16
-8.38
-2.85
2.28
2.55
-3.06
8.2

> <PUBCHEM_SHAPE_SELFOVERLAP>
1632.678

> <PUBCHEM_SHAPE_VOLUME>
395.2

> <PUBCHEM_COORDINATE_TYPE>
2
5
10

$$$$
