5319518
  -OEChem-02172602293D

 32 34  0     1  0  0  0  0  0999 V2000
   -0.2095    2.7382   -0.2002 O   0  0  0  0  0  0  0  0  0  0  0  0
   -3.3149   -2.1150   -0.1120 O   0  0  0  0  0  0  0  0  0  0  0  0
   -3.1000    2.8820    0.3089 O   0  0  0  0  0  0  0  0  0  0  0  0
    0.3274   -2.2606    0.8478 O   0  0  0  0  0  0  0  0  0  0  0  0
   -1.5020   -1.5178   -1.4132 O   0  0  0  0  0  0  0  0  0  0  0  0
    1.9096    3.3348   -0.7333 O   0  0  0  0  0  0  0  0  0  0  0  0
    2.9532   -2.8027    0.5242 O   0  0  0  0  0  0  0  0  0  0  0  0
    4.7190   -0.8172   -0.2269 O   0  0  0  0  0  0  0  0  0  0  0  0
   -1.8867   -0.4538    0.7155 C   0  0  1  0  0  0  0  0  0  0  0  0
   -0.7319    0.4203    0.3490 C   0  0  0  0  0  0  0  0  0  0  0  0
   -3.0679    0.5187    0.8592 C   0  0  0  0  0  0  0  0  0  0  0  0
   -1.0474    1.6991    0.1527 C   0  0  0  0  0  0  0  0  0  0  0  0
    0.6682    0.0547    0.2132 C   0  0  0  0  0  0  0  0  0  0  0  0
   -2.4823    1.8348    0.4160 C   0  0  0  0  0  0  0  0  0  0  0  0
    1.5782    1.0596   -0.1582 C   0  0  0  0  0  0  0  0  0  0  0  0
   -2.1853   -1.4096   -0.4040 C   0  0  0  0  0  0  0  0  0  0  0  0
    1.1407   -1.2426    0.4446 C   0  0  0  0  0  0  0  0  0  0  0  0
    1.1204    2.4620   -0.3911 C   0  0  0  0  0  0  0  0  0  0  0  0
    2.9381    0.7593   -0.3067 C   0  0  0  0  0  0  0  0  0  0  0  0
    2.4973   -1.5369    0.2959 C   0  0  0  0  0  0  0  0  0  0  0  0
    3.3931   -0.5391   -0.0806 C   0  0  0  0  0  0  0  0  0  0  0  0
   -3.7175   -3.0682   -1.1008 C   0  0  0  0  0  0  0  0  0  0  0  0
   -1.7183   -1.0048    1.6461 H   0  0  0  0  0  0  0  0  0  0  0  0
   -3.3733    0.6076    1.9068 H   0  0  0  0  0  0  0  0  0  0  0  0
   -3.9346    0.2811    0.2356 H   0  0  0  0  0  0  0  0  0  0  0  0
    3.6465    1.5322   -0.5946 H   0  0  0  0  0  0  0  0  0  0  0  0
    0.8587   -3.0686    0.9534 H   0  0  0  0  0  0  0  0  0  0  0  0
   -3.9374   -2.5627   -2.0460 H   0  0  0  0  0  0  0  0  0  0  0  0
   -4.6263   -3.5620   -0.7468 H   0  0  0  0  0  0  0  0  0  0  0  0
   -2.9378   -3.8234   -1.2380 H   0  0  0  0  0  0  0  0  0  0  0  0
    3.9145   -2.8154    0.3739 H   0  0  0  0  0  0  0  0  0  0  0  0
    5.1870   -0.0065   -0.4905 H   0  0  0  0  0  0  0  0  0  0  0  0
  1 12  1  0  0  0  0
  1 18  1  0  0  0  0
  2 16  1  0  0  0  0
  2 22  1  0  0  0  0
  3 14  2  0  0  0  0
  4 17  1  0  0  0  0
  4 27  1  0  0  0  0
  5 16  2  0  0  0  0
  6 18  2  0  0  0  0
  7 20  1  0  0  0  0
  7 31  1  0  0  0  0
  8 21  1  0  0  0  0
  8 32  1  0  0  0  0
  9 10  1  0  0  0  0
  9 11  1  0  0  0  0
  9 16  1  0  0  0  0
  9 23  1  0  0  0  0
 10 12  2  0  0  0  0
 10 13  1  0  0  0  0
 11 14  1  0  0  0  0
 11 24  1  0  0  0  0
 11 25  1  0  0  0  0
 12 14  1  0  0  0  0
 13 15  1  0  0  0  0
 13 17  2  0  0  0  0
 15 18  1  0  0  0  0
 15 19  2  0  0  0  0
 17 20  1  0  0  0  0
 19 21  1  0  0  0  0
 19 26  1  0  0  0  0
 20 21  2  0  0  0  0
 22 28  1  0  0  0  0
 22 29  1  0  0  0  0
 22 30  1  0  0  0  0
M  END
> <PUBCHEM_COMPOUND_CID>
5319518

> <PUBCHEM_CONFORMER_RMSD>
0.6

> <PUBCHEM_CONFORMER_DIVERSEORDER>
2
1
3
4
5
6

> <PUBCHEM_MMFF94_PARTIAL_CHARGES>
26
1 -0.23
10 -0.17
11 0.06
12 0.09
13 0.03
14 0.49
15 0.09
16 0.66
17 0.08
18 0.63
19 -0.15
2 -0.43
20 0.08
21 0.08
22 0.28
26 0.15
27 0.45
3 -0.57
31 0.45
32 0.45
4 -0.53
5 -0.57
6 -0.57
7 -0.53
8 -0.53
9 0.2

> <PUBCHEM_EFFECTIVE_ROTOR_COUNT>
2.4

> <PUBCHEM_PHARMACOPHORE_FEATURES>
9
1 3 acceptor
1 4 donor
1 5 acceptor
1 6 acceptor
1 7 donor
1 8 donor
5 9 10 11 12 14 rings
6 1 10 12 13 15 18 rings
6 13 15 17 19 20 21 rings

> <PUBCHEM_HEAVY_ATOM_COUNT>
22

> <PUBCHEM_ATOM_DEF_STEREO_COUNT>
0

> <PUBCHEM_ATOM_UDEF_STEREO_COUNT>
1

> <PUBCHEM_BOND_DEF_STEREO_COUNT>
0

> <PUBCHEM_BOND_UDEF_STEREO_COUNT>
0

> <PUBCHEM_ISOTOPIC_ATOM_COUNT>
0

> <PUBCHEM_COMPONENT_COUNT>
1

> <PUBCHEM_CACTVS_TAUTO_COUNT>
363

> <PUBCHEM_CONFORMER_ID>
00512B5E00000002

> <PUBCHEM_MMFF94_ENERGY>
59.2615

> <PUBCHEM_FEATURE_SELFOVERLAP>
45.783

> <PUBCHEM_SHAPE_FINGERPRINT>
10062212 137 18260829254992681650
10616163 171 18341335509031655718
10756046 5 18337383959099740821
10967382 1 18119534228200508184
1100329 8 18411423903661792289
11578080 2 17559662010063403345
12553582 1 18408042892516022474
13132413 78 18410017598282890436
13140716 1 18264203613270883898
14178342 30 18339345418892120984
14790565 3 18262537948056287276
15196674 1 18119253865514747808
15475509 35 13971753262574476703
16945 1 18191314972925510136
19141452 34 18270685238289719978
19591789 44 17833835966981556131
20905425 154 18127699424644144061
21267235 1 18336842887197911818
21501502 16 18339370776136598841
21634736 98 18339641264660624702
22112679 90 17916034640731483083
221490 88 18046631371524278803
229495 10 16736348570630756599
23184049 59 18050860922347349977
2334 1 18408044000617234032
23388829 49 18339075007635022368
23402539 116 18409445857016684822
23419403 2 17040564973502731913
23558518 356 18338241573510642945
23559900 14 18342165704671852144
238 59 16683414133695085183
2748010 2 16895673165361424690
335352 9 17831302696633872676
34934 24 18190180088031610256
350125 39 18410020961168625169
5845 1 13648841377505289919
6992083 37 18268722610002764401
7164475 11 18269271421219148885
7471813 234 18198606925219124503
7832392 63 18338518538824122088
90525 40 18271247093116320551

> <PUBCHEM_SHAPE_MULTIPOLES>
405.8
6.29
3.83
0.9
1.15
0.83
-0.09
-3.18
-0.6
-1.24
-0.55
-0.39
-0.26
-1.59

> <PUBCHEM_SHAPE_SELFOVERLAP>
910.649

> <PUBCHEM_SHAPE_VOLUME>
215

> <PUBCHEM_COORDINATE_TYPE>
2
5
10

$$$$
