101618145
  -OEChem-02172602303D

 42 44  0     1  0  0  0  0  0999 V2000
    1.0143   -2.4108    0.0478 O   0  0  0  0  0  0  0  0  0  0  0  0
   -2.5816    0.6427    0.4482 O   0  0  0  0  0  0  0  0  0  0  0  0
    2.5895    2.8910   -0.9037 O   0  0  0  0  0  0  0  0  0  0  0  0
   -0.2037   -4.3581    0.0112 O   0  0  0  0  0  0  0  0  0  0  0  0
   -3.7278    1.2907   -1.4499 O   0  0  0  0  0  0  0  0  0  0  0  0
    1.7982   -0.2002    0.6495 C   0  0  1  0  0  0  0  0  0  0  0  0
    1.6346    1.3388    0.7385 C   0  0  2  0  0  0  0  0  0  0  0  0
    0.7440   -0.9998   -0.1460 C   0  0  2  0  0  0  0  0  0  0  0  0
   -0.6909   -0.8187    0.3338 C   0  0  1  0  0  0  0  0  0  0  0  0
    0.2241    1.9532    0.7471 C   0  0  2  0  0  0  0  0  0  0  0  0
   -1.4305    0.3377   -0.3476 C   0  0  2  0  0  0  0  0  0  0  0  0
   -0.6015    1.6171   -0.5051 C   0  0  0  0  0  0  0  0  0  0  0  0
    3.1645   -0.3296   -0.0127 C   0  0  0  0  0  0  0  0  0  0  0  0
    2.5796    1.8015   -0.3536 C   0  0  0  0  0  0  0  0  0  0  0  0
   -1.2469   -2.1804    0.0545 C   0  0  0  0  0  0  0  0  0  0  0  0
    3.5922    0.7761   -0.6303 C   0  0  0  0  0  0  0  0  0  0  0  0
    0.2710    3.4749    0.9547 C   0  0  0  0  0  0  0  0  0  0  0  0
   -0.1316   -3.1430    0.0258 C   0  0  0  0  0  0  0  0  0  0  0  0
    3.9412   -1.6023    0.0408 C   0  0  0  0  0  0  0  0  0  0  0  0
   -2.5013   -2.5780   -0.1754 C   0  0  0  0  0  0  0  0  0  0  0  0
   -3.6579    1.1114   -0.2416 C   0  0  0  0  0  0  0  0  0  0  0  0
   -4.7796    1.3859    0.7139 C   0  0  0  0  0  0  0  0  0  0  0  0
    1.8609   -0.6044    1.6690 H   0  0  0  0  0  0  0  0  0  0  0  0
    2.1217    1.6562    1.6750 H   0  0  0  0  0  0  0  0  0  0  0  0
    0.8387   -0.8054   -1.2234 H   0  0  0  0  0  0  0  0  0  0  0  0
   -0.7124   -0.6985    1.4262 H   0  0  0  0  0  0  0  0  0  0  0  0
   -0.2929    1.5639    1.6341 H   0  0  0  0  0  0  0  0  0  0  0  0
   -1.7402    0.0140   -1.3511 H   0  0  0  0  0  0  0  0  0  0  0  0
   -1.2806    2.4490   -0.7305 H   0  0  0  0  0  0  0  0  0  0  0  0
    0.0563    1.5221   -1.3769 H   0  0  0  0  0  0  0  0  0  0  0  0
    4.5011    0.9302   -1.1853 H   0  0  0  0  0  0  0  0  0  0  0  0
    0.9220    3.7391    1.7946 H   0  0  0  0  0  0  0  0  0  0  0  0
   -0.7312    3.8547    1.1844 H   0  0  0  0  0  0  0  0  0  0  0  0
    0.6205    4.0052    0.0645 H   0  0  0  0  0  0  0  0  0  0  0  0
    3.9978   -1.9713    1.0696 H   0  0  0  0  0  0  0  0  0  0  0  0
    4.9676   -1.4606   -0.3147 H   0  0  0  0  0  0  0  0  0  0  0  0
    3.4806   -2.3716   -0.5849 H   0  0  0  0  0  0  0  0  0  0  0  0
   -3.3286   -1.8784   -0.1638 H   0  0  0  0  0  0  0  0  0  0  0  0
   -2.7419   -3.6165   -0.3783 H   0  0  0  0  0  0  0  0  0  0  0  0
   -5.0675    0.4624    1.2225 H   0  0  0  0  0  0  0  0  0  0  0  0
   -5.6441    1.7623    0.1596 H   0  0  0  0  0  0  0  0  0  0  0  0
   -4.4725    2.1452    1.4375 H   0  0  0  0  0  0  0  0  0  0  0  0
  1  8  1  0  0  0  0
  1 18  1  0  0  0  0
  2 11  1  0  0  0  0
  2 21  1  0  0  0  0
  3 14  2  0  0  0  0
  4 18  2  0  0  0  0
  5 21  2  0  0  0  0
  6  7  1  0  0  0  0
  6  8  1  0  0  0  0
  6 13  1  0  0  0  0
  6 23  1  0  0  0  0
  7 10  1  0  0  0  0
  7 14  1  0  0  0  0
  7 24  1  0  0  0  0
  8  9  1  0  0  0  0
  8 25  1  0  0  0  0
  9 11  1  0  0  0  0
  9 15  1  0  0  0  0
  9 26  1  0  0  0  0
 10 12  1  0  0  0  0
 10 17  1  0  0  0  0
 10 27  1  0  0  0  0
 11 12  1  0  0  0  0
 11 28  1  0  0  0  0
 12 29  1  0  0  0  0
 12 30  1  0  0  0  0
 13 16  2  0  0  0  0
 13 19  1  0  0  0  0
 14 16  1  0  0  0  0
 15 18  1  0  0  0  0
 15 20  2  0  0  0  0
 16 31  1  0  0  0  0
 17 32  1  0  0  0  0
 17 33  1  0  0  0  0
 17 34  1  0  0  0  0
 19 35  1  0  0  0  0
 19 36  1  0  0  0  0
 19 37  1  0  0  0  0
 20 38  1  0  0  0  0
 20 39  1  0  0  0  0
 21 22  1  0  0  0  0
 22 40  1  0  0  0  0
 22 41  1  0  0  0  0
 22 42  1  0  0  0  0
M  END
> <PUBCHEM_COMPOUND_CID>
101618145

> <PUBCHEM_CONFORMER_RMSD>
0.6

> <PUBCHEM_CONFORMER_DIVERSEORDER>
1
4
3
5
2

> <PUBCHEM_MMFF94_PARTIAL_CHARGES>
22
1 -0.43
11 0.28
13 -0.28
14 0.49
15 -0.12
16 -0.14
18 0.71
19 0.14
2 -0.43
20 -0.3
21 0.66
22 0.06
3 -0.57
31 0.15
38 0.15
39 0.15
4 -0.57
5 -0.57
6 0.14
7 0.06
8 0.28
9 0.14

> <PUBCHEM_EFFECTIVE_ROTOR_COUNT>
2.8

> <PUBCHEM_PHARMACOPHORE_FEATURES>
6
1 3 acceptor
1 4 acceptor
1 5 acceptor
5 1 8 9 15 18 rings
5 6 7 13 14 16 rings
7 6 7 8 9 10 11 12 rings

> <PUBCHEM_HEAVY_ATOM_COUNT>
22

> <PUBCHEM_ATOM_DEF_STEREO_COUNT>
6

> <PUBCHEM_ATOM_UDEF_STEREO_COUNT>
0

> <PUBCHEM_BOND_DEF_STEREO_COUNT>
0

> <PUBCHEM_BOND_UDEF_STEREO_COUNT>
0

> <PUBCHEM_ISOTOPIC_ATOM_COUNT>
0

> <PUBCHEM_COMPONENT_COUNT>
1

> <PUBCHEM_CACTVS_TAUTO_COUNT>
20

> <PUBCHEM_CONFORMER_ID>
060E91E100000001

> <PUBCHEM_MMFF94_ENERGY>
54.284

> <PUBCHEM_FEATURE_SELFOVERLAP>
30.525

> <PUBCHEM_SHAPE_FINGERPRINT>
10411042 1 17329430541607123515
10693767 8 17914878852063397679
10863032 1 18339644559027121676
10967382 1 18267021656903567538
1100329 8 18411418397370910698
11578080 2 17129574910953279243
13140716 1 18411414012209405610
13583140 156 16805869724397688081
138480 1 17617660956043743059
14178342 30 17979341285922085552
14223421 5 17764023966497961264
14790565 3 18340218379464369080
16728300 4 17100848748270939850
16752209 62 18267573796598559995
16945 1 18338518521644239848
19591789 44 18410294735390150315
20028762 73 18130221666476394871
20739085 24 17764046665732521265
20905425 154 17764034957735905846
21421861 104 17760093917172681273
21501502 16 18265613358723118022
2334 1 18339078323307583402
23419403 2 15608678677336605160
23558518 356 17901380413822246080
23559900 14 18271527585500614176
238 59 17684043021520032781
25 1 18410290277108335629
2748010 2 18339922735379050842
3060560 45 18336821983708048886
3084891 72 18341328890655662714
335352 9 18338518534634773542
350125 39 18265901426864979267
352729 6 18411705365494923666
458136 41 18338244756429140131
474 4 18339926996392887865
484989 97 18335982077553582263
589210 1 17979913040336572881
7832392 63 18339081604857873696
81228 2 17685203268301199369
8272917 22 18196094339961413245

> <PUBCHEM_SHAPE_MULTIPOLES>
423.4
6.37
4.4
0.9
2.97
2.6
-0.06
-2.39
-0.73
0.13
0.3
0.18
-0.48
-0.25

> <PUBCHEM_SHAPE_SELFOVERLAP>
906.632

> <PUBCHEM_SHAPE_VOLUME>
234.6

> <PUBCHEM_COORDINATE_TYPE>
2
5
10

$$$$
