171042825
  -OEChem-02172602553D

 48 51  0     1  0  0  0  0  0999 V2000
   -4.1963   -0.1847   -0.7453 O   0  5  0  0  0  0  0  0  0  0  0  0
    0.7287    3.7392    1.0590 O   0  0  0  0  0  0  0  0  0  0  0  0
    1.9410   -0.8376   -1.9052 O   0  0  0  0  0  0  0  0  0  0  0  0
    1.8705    2.8218   -1.3055 O   0  0  0  0  0  0  0  0  0  0  0  0
    3.5738   -2.3125   -0.3636 O   0  0  0  0  0  0  0  0  0  0  0  0
   -3.2410   -0.9302   -0.0738 N   0  3  2  0  0  0  0  0  0  0  0  0
   -0.6505    0.2401   -0.9668 C   0  0  2  0  0  0  0  0  0  0  0  0
   -1.6535    1.0247   -0.0758 C   0  0  1  0  0  0  0  0  0  0  0  0
   -2.3970    0.0119    0.8158 C   0  0  2  0  0  0  0  0  0  0  0  0
   -1.4757   -0.7001   -1.8831 C   0  0  0  0  0  0  0  0  0  0  0  0
   -2.3820   -1.6495   -1.0945 C   0  0  0  0  0  0  0  0  0  0  0  0
   -1.4154   -0.6788    1.7792 C   0  0  0  0  0  0  0  0  0  0  0  0
    0.2955   -0.6355   -0.1208 C   0  0  0  0  0  0  0  0  0  0  0  0
    0.0956    1.2895   -1.8220 C   0  0  0  0  0  0  0  0  0  0  0  0
   -0.0920   -1.0685    1.1656 C   0  0  0  0  0  0  0  0  0  0  0  0
   -0.9909    2.1459    0.6911 C   0  0  0  0  0  0  0  0  0  0  0  0
   -3.9976   -1.9386    0.7455 C   0  0  0  0  0  0  0  0  0  0  0  0
    0.8094    2.3097   -0.9537 C   0  0  0  0  0  0  0  0  0  0  0  0
    0.1562    2.7317    0.3163 C   0  0  0  0  0  0  0  0  0  0  0  0
    1.5322   -1.0782   -0.6260 C   0  0  0  0  0  0  0  0  0  0  0  0
    0.7746   -1.8727    1.9258 C   0  0  0  0  0  0  0  0  0  0  0  0
    2.3799   -1.8844    0.1361 C   0  0  0  0  0  0  0  0  0  0  0  0
    2.0045   -2.2762    1.4145 C   0  0  0  0  0  0  0  0  0  0  0  0
    1.6225    3.2117    2.0216 C   0  0  0  0  0  0  0  0  0  0  0  0
    4.7075   -1.4786   -0.1344 C   0  0  0  0  0  0  0  0  0  0  0  0
   -2.3930    1.5209   -0.7212 H   0  0  0  0  0  0  0  0  0  0  0  0
   -3.1575    0.5328    1.4144 H   0  0  0  0  0  0  0  0  0  0  0  0
   -0.8339   -1.2972   -2.5395 H   0  0  0  0  0  0  0  0  0  0  0  0
   -2.1047   -0.0929   -2.5480 H   0  0  0  0  0  0  0  0  0  0  0  0
   -3.0759   -2.1648   -1.7694 H   0  0  0  0  0  0  0  0  0  0  0  0
   -1.8073   -2.4085   -0.5548 H   0  0  0  0  0  0  0  0  0  0  0  0
   -1.8701   -1.5568    2.2460 H   0  0  0  0  0  0  0  0  0  0  0  0
   -1.1921    0.0184    2.5983 H   0  0  0  0  0  0  0  0  0  0  0  0
   -0.6364    1.8625   -2.4106 H   0  0  0  0  0  0  0  0  0  0  0  0
    0.7849    0.8997   -2.5681 H   0  0  0  0  0  0  0  0  0  0  0  0
   -1.4920    2.4985    1.5896 H   0  0  0  0  0  0  0  0  0  0  0  0
   -4.5339   -1.3967    1.5286 H   0  0  0  0  0  0  0  0  0  0  0  0
   -3.2965   -2.6638    1.1613 H   0  0  0  0  0  0  0  0  0  0  0  0
   -4.7030   -2.4408    0.0763 H   0  0  0  0  0  0  0  0  0  0  0  0
    0.4862   -2.1943    2.9239 H   0  0  0  0  0  0  0  0  0  0  0  0
    2.6569   -2.9043    2.0146 H   0  0  0  0  0  0  0  0  0  0  0  0
    1.2074   -1.0652   -2.4995 H   0  0  0  0  0  0  0  0  0  0  0  0
    2.0689    4.0483    2.5674 H   0  0  0  0  0  0  0  0  0  0  0  0
    1.0976    2.5779    2.7451 H   0  0  0  0  0  0  0  0  0  0  0  0
    2.4323    2.6469    1.5466 H   0  0  0  0  0  0  0  0  0  0  0  0
    5.5771   -1.9453   -0.6051 H   0  0  0  0  0  0  0  0  0  0  0  0
    4.5564   -0.4903   -0.5801 H   0  0  0  0  0  0  0  0  0  0  0  0
    4.9004   -1.3811    0.9387 H   0  0  0  0  0  0  0  0  0  0  0  0
  1  6  1  0  0  0  0
  2 19  1  0  0  0  0
  2 24  1  0  0  0  0
  3 20  1  0  0  0  0
  3 42  1  0  0  0  0
  4 18  2  0  0  0  0
  5 22  1  0  0  0  0
  5 25  1  0  0  0  0
  6  9  1  0  0  0  0
  6 11  1  0  0  0  0
  6 17  1  0  0  0  0
  7  8  1  0  0  0  0
  7 10  1  0  0  0  0
  7 13  1  0  0  0  0
  7 14  1  0  0  0  0
  8  9  1  0  0  0  0
  8 16  1  0  0  0  0
  8 26  1  0  0  0  0
  9 12  1  0  0  0  0
  9 27  1  0  0  0  0
 10 11  1  0  0  0  0
 10 28  1  0  0  0  0
 10 29  1  0  0  0  0
 11 30  1  0  0  0  0
 11 31  1  0  0  0  0
 12 15  1  0  0  0  0
 12 32  1  0  0  0  0
 12 33  1  0  0  0  0
 13 15  2  0  0  0  0
 13 20  1  0  0  0  0
 14 18  1  0  0  0  0
 14 34  1  0  0  0  0
 14 35  1  0  0  0  0
 15 21  1  0  0  0  0
 16 19  2  0  0  0  0
 16 36  1  0  0  0  0
 17 37  1  0  0  0  0
 17 38  1  0  0  0  0
 17 39  1  0  0  0  0
 18 19  1  0  0  0  0
 20 22  2  0  0  0  0
 21 23  2  0  0  0  0
 21 40  1  0  0  0  0
 22 23  1  0  0  0  0
 23 41  1  0  0  0  0
 24 43  1  0  0  0  0
 24 44  1  0  0  0  0
 24 45  1  0  0  0  0
 25 46  1  0  0  0  0
 25 47  1  0  0  0  0
 25 48  1  0  0  0  0
M  CHG  2   1  -1   6   1
M  END
> <PUBCHEM_COMPOUND_CID>
171042825

> <PUBCHEM_CONFORMER_RMSD>
0.6

> <PUBCHEM_CONFORMER_DIVERSEORDER>
1
2

> <PUBCHEM_MMFF94_PARTIAL_CHARGES>
28
1 -0.75
11 0.26
12 0.14
13 -0.14
14 0.06
15 -0.14
16 -0.29
17 0.26
18 0.49
19 0.09
2 -0.36
20 0.08
21 -0.15
22 0.08
23 -0.15
24 0.28
25 0.28
3 -0.53
36 0.15
4 -0.57
40 0.15
41 0.15
42 0.45
5 -0.36
6 -0.02
7 0.14
8 0.14
9 0.26

> <PUBCHEM_EFFECTIVE_ROTOR_COUNT>
3

> <PUBCHEM_PHARMACOPHORE_FEATURES>
9
1 1 anion
1 2 acceptor
1 3 donor
1 4 acceptor
1 5 acceptor
6 13 15 20 21 22 23 rings
6 6 7 8 9 10 11 rings
6 7 8 14 16 18 19 rings
6 7 8 9 12 13 15 rings

> <PUBCHEM_HEAVY_ATOM_COUNT>
25

> <PUBCHEM_ATOM_DEF_STEREO_COUNT>
4

> <PUBCHEM_ATOM_UDEF_STEREO_COUNT>
0

> <PUBCHEM_BOND_DEF_STEREO_COUNT>
0

> <PUBCHEM_BOND_UDEF_STEREO_COUNT>
0

> <PUBCHEM_ISOTOPIC_ATOM_COUNT>
0

> <PUBCHEM_COMPONENT_COUNT>
1

> <PUBCHEM_CACTVS_TAUTO_COUNT>
-1

> <PUBCHEM_CONFORMER_ID>
0A31E80900000001

> <PUBCHEM_MMFF94_ENERGY>
102.2011

> <PUBCHEM_FEATURE_SELFOVERLAP>
47.281

> <PUBCHEM_SHAPE_FINGERPRINT>
10764073 3 14067044529460593045
107951 10 16664588205736791696
10863032 1 18124601035874944159
10948715 1 17551788553056806665
1100329 8 18266188223079998521
11578080 2 17969482879931131029
12156800 1 16270552675899923760
12403814 3 17916576536507539966
12592029 89 17838336637826196881
12788726 201 17906721514987360647
13027679 85 18261956249852466325
13132413 78 18117006476880577021
133893 2 17905568389235447327
13681431 1 18337093644594836853
14081887 123 18120362165114973554
14142880 1 17901673657331419228
14181834 199 18125410203265393901
14617773 55 17827387408836751878
14713325 29 17695916523177096102
14787075 74 18261116305063951502
14955137 171 18268449953168931955
15852999 172 17684092765672836049
16945 1 17750257900809173519
17980427 23 17346601829414337169
17980427 26 17841425144461821997
1813 80 18131357392576969967
18393751 57 18268690866954813802
19765921 60 17268353138571117393
19868273 325 18266176128193129755
19930381 70 18128520747646726600
200 152 17895197649370430030
20510252 161 17905042556209939138
20567600 347 17689705785481136747
20691752 17 16588574427090989075
20905425 154 18341058483535620813
21033648 29 16987422132654387771
21296965 67 18336827498530673703
22112679 90 18270134404534025189
22956985 138 17753303633865381650
23419403 2 18192965236562606500
23557571 272 18197216936801080558
23559900 14 18114177592449601821
34934 24 17972320616172729381
35225 105 17472975108484853664
394222 165 17271467990577528411
404807 78 10589184712030245313
4340502 62 17832987527143849419
5845 1 18127426552491916108
5895379 119 17201104525384566545
6287921 2 17701515511252524122
6442390 28 16762556417974122249
70251023 43 18338782516568819191
7364860 26 18340203123903154343
7471813 234 18342734126803453039
81228 2 17979077076591993957
84936 31 18125425643308903803
9925002 15 17772451620499577326

> <PUBCHEM_SHAPE_MULTIPOLES>
480.16
5.27
3.84
1.95
0.18
3.67
0.08
-4.6
-0.41
2.34
1.34
0.21
0.25
0.16

> <PUBCHEM_SHAPE_SELFOVERLAP>
1050.059

> <PUBCHEM_SHAPE_VOLUME>
257.3

> <PUBCHEM_COORDINATE_TYPE>
2
5
10

$$$$
