6918763
  -OEChem-02172602313D

 40 43  0     1  0  0  0  0  0999 V2000
    4.5201    1.3590   -0.3192 O   0  0  0  0  0  0  0  0  0  0  0  0
   -1.2484    0.7050    0.2338 N   0  0  1  0  0  0  0  0  0  0  0  0
    1.2301   -0.8727    0.5567 N   0  0  1  0  0  0  0  0  0  0  0  0
   -1.0465   -1.7876    0.0138 C   0  0  1  0  0  0  0  0  0  0  0  0
    0.0789   -0.3220   -1.6169 C   0  0  2  0  0  0  0  0  0  0  0  0
   -1.8948   -0.5890    0.5270 C   0  0  2  0  0  0  0  0  0  0  0  0
   -0.6946   -1.6327   -1.4663 C   0  0  0  0  0  0  0  0  0  0  0  0
    1.4210   -0.4388   -0.8458 C   0  0  1  0  0  0  0  0  0  0  0  0
   -0.8407    0.8371   -1.1690 C   0  0  0  0  0  0  0  0  0  0  0  0
    0.2588   -1.9472    0.8133 C   0  0  0  0  0  0  0  0  0  0  0  0
   -3.3460   -0.6575    0.0043 C   0  0  0  0  0  0  0  0  0  0  0  0
   -2.0471    1.8412    0.7042 C   0  0  0  0  0  0  0  0  0  0  0  0
   -4.1776    0.5148    0.5167 C   0  0  0  0  0  0  0  0  0  0  0  0
    2.2386    0.8629   -0.9010 C   0  0  0  0  0  0  0  0  0  0  0  0
   -3.4917    1.8389    0.2043 C   0  0  0  0  0  0  0  0  0  0  0  0
    2.2384   -0.6259    1.4773 C   0  0  0  0  0  0  0  0  0  0  0  0
    3.4686    0.7990   -0.0197 C   0  0  0  0  0  0  0  0  0  0  0  0
    3.3329    0.1157    1.2863 C   0  0  0  0  0  0  0  0  0  0  0  0
   -1.6293   -2.7085    0.1449 H   0  0  0  0  0  0  0  0  0  0  0  0
    0.3102   -0.1724   -2.6797 H   0  0  0  0  0  0  0  0  0  0  0  0
   -1.9497   -0.6836    1.6209 H   0  0  0  0  0  0  0  0  0  0  0  0
   -0.0895   -2.4804   -1.8107 H   0  0  0  0  0  0  0  0  0  0  0  0
   -1.5962   -1.6226   -2.0885 H   0  0  0  0  0  0  0  0  0  0  0  0
    2.0182   -1.2226   -1.3350 H   0  0  0  0  0  0  0  0  0  0  0  0
   -0.3261    1.7917   -1.3220 H   0  0  0  0  0  0  0  0  0  0  0  0
   -1.7152    0.8646   -1.8315 H   0  0  0  0  0  0  0  0  0  0  0  0
    0.0182   -1.9963    1.8829 H   0  0  0  0  0  0  0  0  0  0  0  0
    0.7276   -2.9047    0.5517 H   0  0  0  0  0  0  0  0  0  0  0  0
   -3.8123   -1.5952    0.3296 H   0  0  0  0  0  0  0  0  0  0  0  0
   -3.3736   -0.6578   -1.0910 H   0  0  0  0  0  0  0  0  0  0  0  0
   -1.5619    2.7867    0.4324 H   0  0  0  0  0  0  0  0  0  0  0  0
   -2.0533    1.8235    1.8019 H   0  0  0  0  0  0  0  0  0  0  0  0
   -4.3144    0.4196    1.6009 H   0  0  0  0  0  0  0  0  0  0  0  0
   -5.1753    0.4930    0.0645 H   0  0  0  0  0  0  0  0  0  0  0  0
    1.6661    1.7276   -0.5504 H   0  0  0  0  0  0  0  0  0  0  0  0
    2.5531    1.0547   -1.9329 H   0  0  0  0  0  0  0  0  0  0  0  0
   -3.5181    2.0225   -0.8763 H   0  0  0  0  0  0  0  0  0  0  0  0
   -4.0452    2.6586    0.6766 H   0  0  0  0  0  0  0  0  0  0  0  0
    2.0939   -1.1378    2.4231 H   0  0  0  0  0  0  0  0  0  0  0  0
    4.1036    0.2327    2.0363 H   0  0  0  0  0  0  0  0  0  0  0  0
  1 17  2  0  0  0  0
  2  6  1  0  0  0  0
  2  9  1  0  0  0  0
  2 12  1  0  0  0  0
  3  8  1  0  0  0  0
  3 10  1  0  0  0  0
  3 16  1  0  0  0  0
  4  6  1  0  0  0  0
  4  7  1  0  0  0  0
  4 10  1  0  0  0  0
  4 19  1  0  0  0  0
  5  7  1  0  0  0  0
  5  8  1  0  0  0  0
  5  9  1  0  0  0  0
  5 20  1  0  0  0  0
  6 11  1  0  0  0  0
  6 21  1  0  0  0  0
  7 22  1  0  0  0  0
  7 23  1  0  0  0  0
  8 14  1  0  0  0  0
  8 24  1  0  0  0  0
  9 25  1  0  0  0  0
  9 26  1  0  0  0  0
 10 27  1  0  0  0  0
 10 28  1  0  0  0  0
 11 13  1  0  0  0  0
 11 29  1  0  0  0  0
 11 30  1  0  0  0  0
 12 15  1  0  0  0  0
 12 31  1  0  0  0  0
 12 32  1  0  0  0  0
 13 15  1  0  0  0  0
 13 33  1  0  0  0  0
 13 34  1  0  0  0  0
 14 17  1  0  0  0  0
 14 35  1  0  0  0  0
 14 36  1  0  0  0  0
 15 37  1  0  0  0  0
 15 38  1  0  0  0  0
 16 18  2  0  0  0  0
 16 39  1  0  0  0  0
 17 18  1  0  0  0  0
 18 40  1  0  0  0  0
M  END
> <PUBCHEM_COMPOUND_CID>
6918763

> <PUBCHEM_CONFORMER_RMSD>
0.6

> <PUBCHEM_CONFORMER_DIVERSEORDER>
1
2

> <PUBCHEM_MMFF94_PARTIAL_CHARGES>
14
1 -0.57
10 0.37
12 0.27
14 0.06
16 -0.05
17 0.49
18 -0.14
2 -0.81
3 -0.84
39 0.15
40 0.15
6 0.27
8 0.37
9 0.27

> <PUBCHEM_EFFECTIVE_ROTOR_COUNT>
1.6

> <PUBCHEM_PHARMACOPHORE_FEATURES>
7
1 1 acceptor
1 2 cation
1 3 cation
6 2 4 5 6 7 9 rings
6 2 6 11 12 13 15 rings
6 3 4 5 7 8 10 rings
6 3 8 14 16 17 18 rings

> <PUBCHEM_HEAVY_ATOM_COUNT>
18

> <PUBCHEM_ATOM_DEF_STEREO_COUNT>
4

> <PUBCHEM_ATOM_UDEF_STEREO_COUNT>
0

> <PUBCHEM_BOND_DEF_STEREO_COUNT>
0

> <PUBCHEM_BOND_UDEF_STEREO_COUNT>
0

> <PUBCHEM_ISOTOPIC_ATOM_COUNT>
0

> <PUBCHEM_COMPONENT_COUNT>
1

> <PUBCHEM_CACTVS_TAUTO_COUNT>
2

> <PUBCHEM_CONFORMER_ID>
0069926B00000001

> <PUBCHEM_MMFF94_ENERGY>
33.561

> <PUBCHEM_FEATURE_SELFOVERLAP>
37.216

> <PUBCHEM_SHAPE_FINGERPRINT>
10498660 4 18130787828558606873
10618630 7 11314314935794915048
10863032 1 18272374130983794179
10922049 32 18130793334500575166
10948715 1 18341898467437374236
11132069 177 18341614793864864309
11471102 22 15936405654584107590
11640471 11 18187654612574750093
11769659 78 8502365629209894707
12202030 40 13046768060478948384
12251169 10 17676490557373227008
12423570 1 9244749214537685535
12633257 1 17168416061290029872
12808571 1 18413665803480524706
12892183 10 17240769458357934137
13538477 17 18335415832890363026
13583140 156 17385725833269810381
13764800 53 18202003239348732649
14787075 74 17394466026759703187
14943859 89 17846499257526812162
15209294 21 18334008432674888432
15309172 13 17676199187145463330
15534591 1 18411418453458588974
15775835 57 18334296469997578592
16945 1 18272087253175673535
17357779 13 15480101818176694343
18186145 218 15339114637017160555
19862831 5 13110963115058664112
19868273 293 17632290203048380574
20510252 161 18343029903894717305
20671657 53 9799686008793608434
21069387 34 14346373349952967465
21524375 3 18201435822634585090
23184049 59 17312821576001167203
23227448 37 17843672498741424744
23236772 104 18261107529897029154
23382010 3 14620496926947203183
23402539 116 18272365407905040909
23419403 2 17258454226748921207
23557571 272 17845383287742892951
23559900 14 18200040533831344126
25 1 16272218469932396406
276578 36 18339925922202696930
296302 2 18040997341173523461
3323516 105 13398329318453120837
427121 178 18269012902874128155
474 4 17532941725714324724
568465 68 14562537279421911056
7364860 26 18054512404673778079
81228 2 16841884390663460663

> <PUBCHEM_SHAPE_MULTIPOLES>
354.6
6.58
1.91
1.39
1.09
0.11
0.19
-3.56
-1.51
-0.74
-0.06
0.56
0.24
-0.57

> <PUBCHEM_SHAPE_SELFOVERLAP>
758.957

> <PUBCHEM_SHAPE_VOLUME>
189.1

> <PUBCHEM_COORDINATE_TYPE>
2
5
10

$$$$
