15241055
  -OEChem-02172602283D

 86 90  0     1  0  0  0  0  0999 V2000
   -6.2745   -0.4910    0.4828 O   0  0  0  0  0  0  0  0  0  0  0  0
   -6.4094   -2.7966    0.5335 O   0  0  0  0  0  0  0  0  0  0  0  0
    2.3203   -0.2035   -0.3103 C   0  0  2  0  0  0  0  0  0  0  0  0
    1.6858    1.2480   -0.3355 C   0  0  1  0  0  0  0  0  0  0  0  0
    3.8770   -0.1530   -0.6627 C   0  0  1  0  0  0  0  0  0  0  0  0
    4.7384    0.9663    0.0157 C   0  0  1  0  0  0  0  0  0  0  0  0
   -0.6068   -0.0705   -0.4710 C   0  0  2  0  0  0  0  0  0  0  0  0
   -2.1528    0.1958   -0.7301 C   0  0  2  0  0  0  0  0  0  0  0  0
    0.1602    1.1870   -0.0373 C   0  0  0  0  0  0  0  0  0  0  0  0
    1.5917   -1.1031   -1.3650 C   0  0  0  0  0  0  0  0  0  0  0  0
    2.4781    2.1132    0.6866 C   0  0  0  0  0  0  0  0  0  0  0  0
    3.9553    2.2657    0.3359 C   0  0  0  0  0  0  0  0  0  0  0  0
   -2.6987    0.8775    0.5780 C   0  0  2  0  0  0  0  0  0  0  0  0
    0.1025   -0.8193   -1.6085 C   0  0  0  0  0  0  0  0  0  0  0  0
    4.6081   -1.5348   -0.6920 C   0  0  0  0  0  0  0  0  0  0  0  0
    5.4257    0.4626    1.3069 C   0  0  0  0  0  0  0  0  0  0  0  0
    5.5494   -1.9563    0.4741 C   0  0  0  0  0  0  0  0  0  0  0  0
    2.1213   -0.8636    1.0806 C   0  0  0  0  0  0  0  0  0  0  0  0
   -4.2637    0.9204    0.7766 C   0  0  0  0  0  0  0  0  0  0  0  0
    1.8002    1.9441   -1.7259 C   0  0  0  0  0  0  0  0  0  0  0  0
   -2.8809   -1.1555   -0.9477 C   0  0  0  0  0  0  0  0  0  0  0  0
   -1.9871    2.2234    0.8231 C   0  0  0  0  0  0  0  0  0  0  0  0
    6.3021   -0.7672    1.0901 C   0  0  0  0  0  0  0  0  0  0  0  0
   -0.5107    2.1992    0.5490 C   0  0  0  0  0  0  0  0  0  0  0  0
    5.8628    1.3886   -0.9814 C   0  0  0  0  0  0  0  0  0  0  0  0
   -4.8477   -0.4926    0.4818 C   0  0  2  0  0  0  0  0  0  0  0  0
   -2.3333    1.0652   -1.9986 C   0  0  0  0  0  0  0  0  0  0  0  0
   -4.3974   -1.0568   -0.8614 C   0  0  0  0  0  0  0  0  0  0  0  0
    4.8044   -2.7167    1.5880 C   0  0  0  0  0  0  0  0  0  0  0  0
    6.5921   -2.9507   -0.0951 C   0  0  0  0  0  0  0  0  0  0  0  0
   -4.5681    1.2651    2.2617 C   0  0  0  0  0  0  0  0  0  0  0  0
   -4.9914    1.9973   -0.0574 C   0  0  0  0  0  0  0  0  0  0  0  0
   -6.8661   -1.6984    0.2463 C   0  0  0  0  0  0  0  0  0  0  0  0
   -8.1869   -1.4898   -0.4307 C   0  0  0  0  0  0  0  0  0  0  0  0
    3.8615    0.1280   -1.7272 H   0  0  0  0  0  0  0  0  0  0  0  0
   -0.5769   -0.7572    0.3850 H   0  0  0  0  0  0  0  0  0  0  0  0
    1.6891   -2.1597   -1.0844 H   0  0  0  0  0  0  0  0  0  0  0  0
    2.0932   -1.0250   -2.3387 H   0  0  0  0  0  0  0  0  0  0  0  0
    2.3768    1.7163    1.7029 H   0  0  0  0  0  0  0  0  0  0  0  0
    2.0737    3.1315    0.7315 H   0  0  0  0  0  0  0  0  0  0  0  0
    4.0173    2.9564   -0.5155 H   0  0  0  0  0  0  0  0  0  0  0  0
    4.4484    2.8103    1.1526 H   0  0  0  0  0  0  0  0  0  0  0  0
   -2.3519    0.2206    1.3946 H   0  0  0  0  0  0  0  0  0  0  0  0
    0.0062   -0.2703   -2.5502 H   0  0  0  0  0  0  0  0  0  0  0  0
   -0.3879   -1.7825   -1.7914 H   0  0  0  0  0  0  0  0  0  0  0  0
    3.8995   -2.3453   -0.8932 H   0  0  0  0  0  0  0  0  0  0  0  0
    5.2284   -1.5027   -1.6009 H   0  0  0  0  0  0  0  0  0  0  0  0
    4.6901    0.2611    2.0893 H   0  0  0  0  0  0  0  0  0  0  0  0
    6.0662    1.2561    1.7160 H   0  0  0  0  0  0  0  0  0  0  0  0
    2.7770   -0.4378    1.8375 H   0  0  0  0  0  0  0  0  0  0  0  0
    1.1159   -0.7491    1.4862 H   0  0  0  0  0  0  0  0  0  0  0  0
    2.3019   -1.9405    1.0373 H   0  0  0  0  0  0  0  0  0  0  0  0
    2.8215    1.9694   -2.1127 H   0  0  0  0  0  0  0  0  0  0  0  0
    1.1922    1.4699   -2.4990 H   0  0  0  0  0  0  0  0  0  0  0  0
    1.4616    2.9863   -1.6638 H   0  0  0  0  0  0  0  0  0  0  0  0
   -2.5416   -1.8818   -0.1971 H   0  0  0  0  0  0  0  0  0  0  0  0
   -2.6197   -1.5787   -1.9252 H   0  0  0  0  0  0  0  0  0  0  0  0
   -2.1238    2.5280    1.8665 H   0  0  0  0  0  0  0  0  0  0  0  0
   -2.4175    3.0143    0.2010 H   0  0  0  0  0  0  0  0  0  0  0  0
    7.1577   -0.4939    0.4609 H   0  0  0  0  0  0  0  0  0  0  0  0
    6.7441   -1.0586    2.0524 H   0  0  0  0  0  0  0  0  0  0  0  0
    0.0018    3.1126    0.8305 H   0  0  0  0  0  0  0  0  0  0  0  0
    6.4628    0.5416   -1.3262 H   0  0  0  0  0  0  0  0  0  0  0  0
    5.4392    1.8539   -1.8795 H   0  0  0  0  0  0  0  0  0  0  0  0
    6.5420    2.1171   -0.5236 H   0  0  0  0  0  0  0  0  0  0  0  0
   -4.5113   -1.1714    1.2788 H   0  0  0  0  0  0  0  0  0  0  0  0
   -1.8003    2.0182   -1.9397 H   0  0  0  0  0  0  0  0  0  0  0  0
   -1.9648    0.5473   -2.8903 H   0  0  0  0  0  0  0  0  0  0  0  0
   -3.3771    1.2917   -2.2082 H   0  0  0  0  0  0  0  0  0  0  0  0
   -4.7961   -0.4535   -1.6853 H   0  0  0  0  0  0  0  0  0  0  0  0
   -4.7867   -2.0630   -1.0452 H   0  0  0  0  0  0  0  0  0  0  0  0
    5.5108   -3.2187    2.2608 H   0  0  0  0  0  0  0  0  0  0  0  0
    4.2110   -2.0557    2.2203 H   0  0  0  0  0  0  0  0  0  0  0  0
    4.1488   -3.4908    1.1750 H   0  0  0  0  0  0  0  0  0  0  0  0
    7.1904   -2.4900   -0.8896 H   0  0  0  0  0  0  0  0  0  0  0  0
    7.2872   -3.2888    0.6821 H   0  0  0  0  0  0  0  0  0  0  0  0
    6.1028   -3.8363   -0.5166 H   0  0  0  0  0  0  0  0  0  0  0  0
   -4.2628    2.2861    2.5131 H   0  0  0  0  0  0  0  0  0  0  0  0
   -5.6407    1.1894    2.4751 H   0  0  0  0  0  0  0  0  0  0  0  0
   -4.0514    0.5803    2.9434 H   0  0  0  0  0  0  0  0  0  0  0  0
   -4.5615    2.9922    0.0874 H   0  0  0  0  0  0  0  0  0  0  0  0
   -4.9962    1.7807   -1.1250 H   0  0  0  0  0  0  0  0  0  0  0  0
   -6.0450    2.0746    0.2390 H   0  0  0  0  0  0  0  0  0  0  0  0
   -8.0362   -0.9827   -1.3870 H   0  0  0  0  0  0  0  0  0  0  0  0
   -8.8464   -0.9056    0.2158 H   0  0  0  0  0  0  0  0  0  0  0  0
   -8.6544   -2.4602   -0.6208 H   0  0  0  0  0  0  0  0  0  0  0  0
  1 26  1  0  0  0  0
  1 33  1  0  0  0  0
  2 33  2  0  0  0  0
  3  4  1  0  0  0  0
  3  5  1  0  0  0  0
  3 10  1  0  0  0  0
  3 18  1  0  0  0  0
  4  9  1  0  0  0  0
  4 11  1  0  0  0  0
  4 20  1  0  0  0  0
  5  6  1  0  0  0  0
  5 15  1  0  0  0  0
  5 35  1  0  0  0  0
  6 12  1  0  0  0  0
  6 16  1  0  0  0  0
  6 25  1  0  0  0  0
  7  8  1  0  0  0  0
  7  9  1  0  0  0  0
  7 14  1  0  0  0  0
  7 36  1  0  0  0  0
  8 13  1  0  0  0  0
  8 21  1  0  0  0  0
  8 27  1  0  0  0  0
  9 24  2  0  0  0  0
 10 14  1  0  0  0  0
 10 37  1  0  0  0  0
 10 38  1  0  0  0  0
 11 12  1  0  0  0  0
 11 39  1  0  0  0  0
 11 40  1  0  0  0  0
 12 41  1  0  0  0  0
 12 42  1  0  0  0  0
 13 19  1  0  0  0  0
 13 22  1  0  0  0  0
 13 43  1  0  0  0  0
 14 44  1  0  0  0  0
 14 45  1  0  0  0  0
 15 17  1  0  0  0  0
 15 46  1  0  0  0  0
 15 47  1  0  0  0  0
 16 23  1  0  0  0  0
 16 48  1  0  0  0  0
 16 49  1  0  0  0  0
 17 23  1  0  0  0  0
 17 29  1  0  0  0  0
 17 30  1  0  0  0  0
 18 50  1  0  0  0  0
 18 51  1  0  0  0  0
 18 52  1  0  0  0  0
 19 26  1  0  0  0  0
 19 31  1  0  0  0  0
 19 32  1  0  0  0  0
 20 53  1  0  0  0  0
 20 54  1  0  0  0  0
 20 55  1  0  0  0  0
 21 28  1  0  0  0  0
 21 56  1  0  0  0  0
 21 57  1  0  0  0  0
 22 24  1  0  0  0  0
 22 58  1  0  0  0  0
 22 59  1  0  0  0  0
 23 60  1  0  0  0  0
 23 61  1  0  0  0  0
 24 62  1  0  0  0  0
 25 63  1  0  0  0  0
 25 64  1  0  0  0  0
 25 65  1  0  0  0  0
 26 28  1  0  0  0  0
 26 66  1  0  0  0  0
 27 67  1  0  0  0  0
 27 68  1  0  0  0  0
 27 69  1  0  0  0  0
 28 70  1  0  0  0  0
 28 71  1  0  0  0  0
 29 72  1  0  0  0  0
 29 73  1  0  0  0  0
 29 74  1  0  0  0  0
 30 75  1  0  0  0  0
 30 76  1  0  0  0  0
 30 77  1  0  0  0  0
 31 78  1  0  0  0  0
 31 79  1  0  0  0  0
 31 80  1  0  0  0  0
 32 81  1  0  0  0  0
 32 82  1  0  0  0  0
 32 83  1  0  0  0  0
 33 34  1  0  0  0  0
 34 84  1  0  0  0  0
 34 85  1  0  0  0  0
 34 86  1  0  0  0  0
M  END
> <PUBCHEM_COMPOUND_CID>
15241055

> <PUBCHEM_CONFORMER_RMSD>
0.8

> <PUBCHEM_CONFORMER_DIVERSEORDER>
1
2

> <PUBCHEM_MMFF94_PARTIAL_CHARGES>
11
1 -0.43
2 -0.57
22 0.14
24 -0.29
26 0.28
33 0.66
34 0.06
4 0.14
62 0.15
7 0.14
9 -0.28

> <PUBCHEM_EFFECTIVE_ROTOR_COUNT>
4.6

> <PUBCHEM_PHARMACOPHORE_FEATURES>
8
1 2 acceptor
3 17 29 30 hydrophobe
3 19 31 32 hydrophobe
6 3 4 5 6 11 12 rings
6 3 4 7 9 10 14 rings
6 5 6 15 16 17 23 rings
6 7 8 9 13 22 24 rings
6 8 13 19 21 26 28 rings

> <PUBCHEM_HEAVY_ATOM_COUNT>
34

> <PUBCHEM_ATOM_DEF_STEREO_COUNT>
8

> <PUBCHEM_ATOM_UDEF_STEREO_COUNT>
0

> <PUBCHEM_BOND_DEF_STEREO_COUNT>
0

> <PUBCHEM_BOND_UDEF_STEREO_COUNT>
0

> <PUBCHEM_ISOTOPIC_ATOM_COUNT>
0

> <PUBCHEM_COMPONENT_COUNT>
1

> <PUBCHEM_CACTVS_TAUTO_COUNT>
1

> <PUBCHEM_CONFORMER_ID>
00E88F5F00000001

> <PUBCHEM_MMFF94_ENERGY>
164.5368

> <PUBCHEM_FEATURE_SELFOVERLAP>
40.662

> <PUBCHEM_SHAPE_FINGERPRINT>
10 15 17704069620375475483
10939801 23 18130505365965926872
11646440 116 16200437982768055472
117089 54 18125163728347716534
11719270 70 18131353003352534519
11963148 33 18265611181075485567
12107698 1 18411138039243835497
12166972 35 18261112993058974356
12236239 1 18409451375242668553
12422481 6 18059297539570652452
12596602 18 18410854347763359144
13533116 47 18408885157304055106
13782708 43 17967532350344955611
13811026 1 18410568475462888527
13914758 101 17967247582109393837
14341114 176 18412543206625013830
14849402 71 18270964656558150448
15183329 4 18059856185766279405
15510800 12 17676780863499473291
1577012 14 18342185457400532689
15788980 27 18040712524860157612
16112460 7 18411982477059532090
17349148 13 18334301942076122348
1813 80 17894632526870270228
18222031 100 16008751307873425094
19377110 9 18131347514109737258
1979834 28 17131836439469191870
19841028 212 18333447660175408907
19958102 18 16081087052140102954
20028762 73 18412546479280187546
21130935 74 18343021056304662458
21267235 1 18201729478154631572
21424621 283 12319467588736359855
21792934 111 18060135432546506929
21987483 16 17842549928130718179
22149856 69 17059517191866092347
23522609 53 18122941730794912424
23559900 14 13479419426383246565
23569943 247 17971188123829620906
23576562 1 10809926110637497347
2838139 119 11023836037153335243
32027 91 17625835868051816255
3383291 50 18410291428403275467
34797466 226 16443345416208213404
350125 39 18130509725410544917
3633792 109 18113891651208166983
3680242 22 18271812281074646912
392239 28 18201169827516886939
4073 2 18189620629775766002
4112364 45 13038613120000932715
4197921 191 18341336681394151609
439807 62 18409449207043534267
44880568 143 16732976523029136573
4516262 110 17972040503076199228
465052 167 18342177761119415886
474113 269 18272360972180088791
5104073 3 18131350799796551664
54039377 194 18339364068215548726
5718773 13 18409166601931606323
59682541 52 13695862598205380570
6081469 158 18261386776919739815
6086070 43 18115014226457356117
6691757 9 16199851904600556606
9896288 288 17772197405374085689

> <PUBCHEM_SHAPE_MULTIPOLES>
687.97
18.81
2.9
1.54
12.88
0.6
-0.02
12.13
4.1
-1.22
0.46
-0.01
-0.16
-1.27

> <PUBCHEM_SHAPE_SELFOVERLAP>
1449.124

> <PUBCHEM_SHAPE_VOLUME>
382.1

> <PUBCHEM_COORDINATE_TYPE>
2
5
10

$$$$
