57390908
  -OEChem-02172602303D

 56 58  0     1  0  0  0  0  0999 V2000
    0.8837    3.2739   -1.1459 O   0  0  0  0  0  0  0  0  0  0  0  0
    1.7520   -1.4619   -1.8476 O   0  0  0  0  0  0  0  0  0  0  0  0
    0.7114   -2.5414    1.3439 O   0  0  0  0  0  0  0  0  0  0  0  0
    3.3219    1.9744    0.0192 O   0  0  0  0  0  0  0  0  0  0  0  0
   -4.0565   -0.0686    0.2730 C   0  0  0  0  0  0  0  0  0  0  0  0
   -2.8868   -0.7040   -0.4286 C   0  0  1  0  0  0  0  0  0  0  0  0
   -3.0831    0.8056   -0.4748 C   0  0  2  0  0  0  0  0  0  0  0  0
   -1.8457   -1.4058    0.3967 C   0  0  0  0  0  0  0  0  0  0  0  0
   -2.3181    1.8289    0.3212 C   0  0  0  0  0  0  0  0  0  0  0  0
   -4.0106   -0.0167    1.7638 C   0  0  0  0  0  0  0  0  0  0  0  0
   -5.4362   -0.2738   -0.2610 C   0  0  0  0  0  0  0  0  0  0  0  0
   -0.7766   -2.0897   -0.4790 C   0  0  1  0  0  0  0  0  0  0  0  0
   -1.3258    2.6402   -0.5316 C   0  0  0  0  0  0  0  0  0  0  0  0
    0.1845    2.4214   -0.2305 C   0  0  1  0  0  0  0  0  0  0  0  0
    1.7270   -1.2489   -0.4491 C   0  0  2  0  0  0  0  0  0  0  0  0
    0.5771   -2.0251    0.2312 C   0  0  0  0  0  0  0  0  0  0  0  0
    1.6204    0.2455   -0.1552 C   0  0  0  0  0  0  0  0  0  0  0  0
   -1.1232   -3.5485   -0.7703 C   0  0  0  0  0  0  0  0  0  0  0  0
    3.0939   -1.6430    0.1430 C   0  0  0  0  0  0  0  0  0  0  0  0
    3.9073   -0.3536    0.0998 C   0  0  1  0  0  0  0  0  0  0  0  0
    0.5633    0.9894   -0.5340 C   0  0  0  0  0  0  0  0  0  0  0  0
    2.8925    0.7161    0.5099 C   0  0  1  0  0  0  0  0  0  0  0  0
    0.4969    2.8841    1.2006 C   0  0  0  0  0  0  0  0  0  0  0  0
    5.1307   -0.3983    1.0055 C   0  0  0  0  0  0  0  0  0  0  0  0
   -3.1168   -1.2578   -1.3341 H   0  0  0  0  0  0  0  0  0  0  0  0
   -3.4374    1.2237   -1.4127 H   0  0  0  0  0  0  0  0  0  0  0  0
   -2.3346   -2.1594    1.0272 H   0  0  0  0  0  0  0  0  0  0  0  0
   -1.3533   -0.7074    1.0792 H   0  0  0  0  0  0  0  0  0  0  0  0
   -1.8038    1.3996    1.1813 H   0  0  0  0  0  0  0  0  0  0  0  0
   -3.0537    2.5358    0.7272 H   0  0  0  0  0  0  0  0  0  0  0  0
   -3.0218    0.0506    2.2213 H   0  0  0  0  0  0  0  0  0  0  0  0
   -4.5875    0.8426    2.1257 H   0  0  0  0  0  0  0  0  0  0  0  0
   -4.4788   -0.9164    2.1813 H   0  0  0  0  0  0  0  0  0  0  0  0
   -6.0996    0.5358    0.0611 H   0  0  0  0  0  0  0  0  0  0  0  0
   -5.4496   -0.2970   -1.3562 H   0  0  0  0  0  0  0  0  0  0  0  0
   -5.8523   -1.2220    0.0954 H   0  0  0  0  0  0  0  0  0  0  0  0
   -0.6978   -1.5793   -1.4436 H   0  0  0  0  0  0  0  0  0  0  0  0
   -1.5089    2.4767   -1.6032 H   0  0  0  0  0  0  0  0  0  0  0  0
   -1.5478    3.7075   -0.3852 H   0  0  0  0  0  0  0  0  0  0  0  0
   -1.2062   -4.1350    0.1513 H   0  0  0  0  0  0  0  0  0  0  0  0
   -0.3449   -4.0143   -1.3848 H   0  0  0  0  0  0  0  0  0  0  0  0
   -2.0728   -3.6248   -1.3094 H   0  0  0  0  0  0  0  0  0  0  0  0
    3.5879   -2.4313   -0.4365 H   0  0  0  0  0  0  0  0  0  0  0  0
    3.0178   -1.9932    1.1792 H   0  0  0  0  0  0  0  0  0  0  0  0
    4.2571   -0.1726   -0.9266 H   0  0  0  0  0  0  0  0  0  0  0  0
   -0.1774    0.4816   -1.1455 H   0  0  0  0  0  0  0  0  0  0  0  0
    2.7652    0.7632    1.5969 H   0  0  0  0  0  0  0  0  0  0  0  0
    0.0036    3.8398    1.4152 H   0  0  0  0  0  0  0  0  0  0  0  0
    1.5630    3.0756    1.3477 H   0  0  0  0  0  0  0  0  0  0  0  0
    0.1709    2.1595    1.9533 H   0  0  0  0  0  0  0  0  0  0  0  0
    0.6567    4.1956   -0.9343 H   0  0  0  0  0  0  0  0  0  0  0  0
    1.9316   -2.4047   -2.0045 H   0  0  0  0  0  0  0  0  0  0  0  0
    4.8506   -0.5723    2.0498 H   0  0  0  0  0  0  0  0  0  0  0  0
    5.6822    0.5463    0.9576 H   0  0  0  0  0  0  0  0  0  0  0  0
    5.8078   -1.2023    0.6991 H   0  0  0  0  0  0  0  0  0  0  0  0
    3.3438    1.9362   -0.9523 H   0  0  0  0  0  0  0  0  0  0  0  0
  1 14  1  0  0  0  0
  1 51  1  0  0  0  0
  2 15  1  0  0  0  0
  2 52  1  0  0  0  0
  3 16  2  0  0  0  0
  4 22  1  0  0  0  0
  4 56  1  0  0  0  0
  5  6  1  0  0  0  0
  5  7  1  0  0  0  0
  5 10  1  0  0  0  0
  5 11  1  0  0  0  0
  6  7  1  0  0  0  0
  6  8  1  0  0  0  0
  6 25  1  0  0  0  0
  7  9  1  0  0  0  0
  7 26  1  0  0  0  0
  8 12  1  0  0  0  0
  8 27  1  0  0  0  0
  8 28  1  0  0  0  0
  9 13  1  0  0  0  0
  9 29  1  0  0  0  0
  9 30  1  0  0  0  0
 10 31  1  0  0  0  0
 10 32  1  0  0  0  0
 10 33  1  0  0  0  0
 11 34  1  0  0  0  0
 11 35  1  0  0  0  0
 11 36  1  0  0  0  0
 12 16  1  0  0  0  0
 12 18  1  0  0  0  0
 12 37  1  0  0  0  0
 13 14  1  0  0  0  0
 13 38  1  0  0  0  0
 13 39  1  0  0  0  0
 14 21  1  0  0  0  0
 14 23  1  0  0  0  0
 15 16  1  0  0  0  0
 15 17  1  0  0  0  0
 15 19  1  0  0  0  0
 17 21  2  0  0  0  0
 17 22  1  0  0  0  0
 18 40  1  0  0  0  0
 18 41  1  0  0  0  0
 18 42  1  0  0  0  0
 19 20  1  0  0  0  0
 19 43  1  0  0  0  0
 19 44  1  0  0  0  0
 20 22  1  0  0  0  0
 20 24  1  0  0  0  0
 20 45  1  0  0  0  0
 21 46  1  0  0  0  0
 22 47  1  0  0  0  0
 23 48  1  0  0  0  0
 23 49  1  0  0  0  0
 23 50  1  0  0  0  0
 24 53  1  0  0  0  0
 24 54  1  0  0  0  0
 24 55  1  0  0  0  0
M  END
> <PUBCHEM_COMPOUND_CID>
57390908

> <PUBCHEM_CONFORMER_RMSD>
0.6

> <PUBCHEM_CONFORMER_DIVERSEORDER>
1
3
2

> <PUBCHEM_MMFF94_PARTIAL_CHARGES>
24
1 -0.68
10 0.09
11 0.09
12 0.06
14 0.42
15 0.48
16 0.45
17 -0.28
2 -0.68
21 -0.29
22 0.42
25 0.1
26 0.1
3 -0.57
4 -0.68
46 0.15
5 -0.19
51 0.4
52 0.4
56 0.4
6 -0.19
7 -0.19
8 0.09
9 0.09

> <PUBCHEM_EFFECTIVE_ROTOR_COUNT>
1.8

> <PUBCHEM_PHARMACOPHORE_FEATURES>
9
1 1 acceptor
1 1 donor
1 2 acceptor
1 2 donor
1 3 acceptor
1 4 acceptor
1 4 donor
3 5 10 11 hydrophobe
5 15 17 19 20 22 rings

> <PUBCHEM_HEAVY_ATOM_COUNT>
24

> <PUBCHEM_ATOM_DEF_STEREO_COUNT>
7

> <PUBCHEM_ATOM_UDEF_STEREO_COUNT>
0

> <PUBCHEM_BOND_DEF_STEREO_COUNT>
1

> <PUBCHEM_BOND_UDEF_STEREO_COUNT>
0

> <PUBCHEM_ISOTOPIC_ATOM_COUNT>
0

> <PUBCHEM_COMPONENT_COUNT>
1

> <PUBCHEM_CACTVS_TAUTO_COUNT>
2

> <PUBCHEM_CONFORMER_ID>
036BB73C00000001

> <PUBCHEM_MMFF94_ENERGY>
75.2855

> <PUBCHEM_FEATURE_SELFOVERLAP>
45.674

> <PUBCHEM_SHAPE_FINGERPRINT>
104564 63 18122069706287767913
10498660 4 18266740169416176759
10616163 171 18193275196004945421
10759866 29 18040444278440513638
10967382 1 18410574006631581972
1100329 8 18337950219934642914
11578080 2 16302034854529964582
11646440 116 18343308076141778475
12011746 2 18411134736129200453
12403259 226 18123468280899681614
12553582 1 18339376213797252445
12596599 1 17988659492648987343
12633257 1 18343018917083511480
12645989 146 18271524204512611494
12788726 201 18335704910655435792
12838862 33 18266435703200377733
13132413 78 18265334083028197476
13140716 1 18194963173944299705
13402501 40 18411976940614111065
13583140 156 17458333148434782123
14081887 123 18198050387910358416
14178342 30 18123474882032742336
14223421 5 17978508633206615574
14765038 42 18200332016082296392
14787075 74 18412822503995581928
14790565 3 18410584980358270292
15196674 1 18338515218814278743
15209289 33 18343863311922706369
16728300 4 17534878828378086467
17357779 13 18338221688144300845
17492 54 18188786035925768764
18219364 16 18334294279991421471
19591789 44 18050847724303278198
20028762 73 18201995568896631215
20261772 1 18411418418756121770
20600515 1 18411986879432321260
20739085 24 18194428630994621721
20905425 154 18049159973542860615
21197605 99 17979643652168557603
21267235 1 18410299090101788582
22113638 7 18338793519905155485
23184049 59 18412548716719985931
2334 1 18339081488719605605
23402539 116 18271231785737112591
23559900 14 18199464536432292448
238 59 18048278307331036061
2748010 2 18266177232094677149
2871803 45 18335979770796973845
350125 39 18410570726337390688
3524813 1 18271796913185854848
3680242 22 18263363603287486027
484985 159 14571204480586616491
5939293 188 18340485676589667116
6287921 2 17844831208240843791
6438718 38 17845371226926145607
6443956 14 18341333310430659513
7064713 232 18202286883463510089
7832392 63 18340483494920782854

> <PUBCHEM_SHAPE_MULTIPOLES>
470.43
8.01
3.73
1.17
1.62
0.52
-0.14
-0.71
-1.9
-0.28
0.53
0.12
-0.05
-0.08

> <PUBCHEM_SHAPE_SELFOVERLAP>
978.361

> <PUBCHEM_SHAPE_VOLUME>
269.6

> <PUBCHEM_COORDINATE_TYPE>
2
5
10

$$$$
