131752304
  -OEChem-02172602523D

 31 31  0     1  0  0  0  0  0999 V2000
    0.6058   -1.6215    0.4565 O   0  0  0  0  0  0  0  0  0  0  0  0
   -0.0085   -0.3320    0.4884 C   0  0  2  0  0  0  0  0  0  0  0  0
    0.9598    0.7234    1.0397 C   0  0  0  0  0  0  0  0  0  0  0  0
    2.0028    1.1731    0.0418 C   0  0  0  0  0  0  0  0  0  0  0  0
    2.8345   -1.1683   -0.4329 C   0  0  0  0  0  0  0  0  0  0  0  0
    1.4761   -1.8226   -0.6529 C   0  0  0  0  0  0  0  0  0  0  0  0
    2.8249    0.3221   -0.5975 C   0  0  0  0  0  0  0  0  0  0  0  0
   -1.2124   -0.4540    1.3719 C   0  0  0  0  0  0  0  0  0  0  0  0
    2.1026    2.6563   -0.1808 C   0  0  0  0  0  0  0  0  0  0  0  0
   -2.4690   -0.2515    0.9449 C   0  0  0  0  0  0  0  0  0  0  0  0
   -2.8743    0.1106   -0.4072 C   0  0  0  0  0  0  0  0  0  0  0  0
   -3.9767    1.1139   -0.6061 C   0  0  0  0  0  0  0  0  0  0  0  0
   -2.2655   -0.4495   -1.4657 C   0  0  0  0  0  0  0  0  0  0  0  0
   -0.2297    0.0005   -0.5219 H   0  0  0  0  0  0  0  0  0  0  0  0
    1.4771    0.3453    1.9317 H   0  0  0  0  0  0  0  0  0  0  0  0
    0.3860    1.6032    1.3611 H   0  0  0  0  0  0  0  0  0  0  0  0
    3.5363   -1.5795   -1.1687 H   0  0  0  0  0  0  0  0  0  0  0  0
    3.2285   -1.4149    0.5601 H   0  0  0  0  0  0  0  0  0  0  0  0
    1.0040   -1.5023   -1.5895 H   0  0  0  0  0  0  0  0  0  0  0  0
    1.6257   -2.9053   -0.7297 H   0  0  0  0  0  0  0  0  0  0  0  0
    3.5698    0.7237   -1.2813 H   0  0  0  0  0  0  0  0  0  0  0  0
   -1.0527   -0.7164    2.4150 H   0  0  0  0  0  0  0  0  0  0  0  0
    1.1550    3.0447   -0.5683 H   0  0  0  0  0  0  0  0  0  0  0  0
    2.8870    2.9178   -0.8989 H   0  0  0  0  0  0  0  0  0  0  0  0
    2.3303    3.1664    0.7608 H   0  0  0  0  0  0  0  0  0  0  0  0
   -3.2782   -0.3366    1.6668 H   0  0  0  0  0  0  0  0  0  0  0  0
   -3.7102    2.0677   -0.1382 H   0  0  0  0  0  0  0  0  0  0  0  0
   -4.9057    0.7536   -0.1515 H   0  0  0  0  0  0  0  0  0  0  0  0
   -4.1782    1.3083   -1.6650 H   0  0  0  0  0  0  0  0  0  0  0  0
   -2.5552   -0.1727   -2.4757 H   0  0  0  0  0  0  0  0  0  0  0  0
   -1.5545   -1.2647   -1.3976 H   0  0  0  0  0  0  0  0  0  0  0  0
  1  2  1  0  0  0  0
  1  6  1  0  0  0  0
  2  3  1  0  0  0  0
  2  8  1  0  0  0  0
  2 14  1  0  0  0  0
  3  4  1  0  0  0  0
  3 15  1  0  0  0  0
  3 16  1  0  0  0  0
  4  7  2  0  0  0  0
  4  9  1  0  0  0  0
  5  6  1  0  0  0  0
  5  7  1  0  0  0  0
  5 17  1  0  0  0  0
  5 18  1  0  0  0  0
  6 19  1  0  0  0  0
  6 20  1  0  0  0  0
  7 21  1  0  0  0  0
  8 10  2  0  0  0  0
  8 22  1  0  0  0  0
  9 23  1  0  0  0  0
  9 24  1  0  0  0  0
  9 25  1  0  0  0  0
 10 11  1  0  0  0  0
 10 26  1  0  0  0  0
 11 12  1  0  0  0  0
 11 13  2  0  0  0  0
 12 27  1  0  0  0  0
 12 28  1  0  0  0  0
 12 29  1  0  0  0  0
 13 30  1  0  0  0  0
 13 31  1  0  0  0  0
M  END
> <PUBCHEM_COMPOUND_CID>
131752304

> <PUBCHEM_CONFORMER_RMSD>
0.6

> <PUBCHEM_CONFORMER_DIVERSEORDER>
4
21
8
15
9
17
20
1
12
2
18
16
5
14
11
7
6
3
13
19
10

> <PUBCHEM_MMFF94_PARTIAL_CHARGES>
18
1 -0.56
10 -0.15
11 -0.14
12 0.14
13 -0.3
2 0.42
21 0.15
22 0.15
26 0.15
3 0.14
30 0.15
31 0.15
4 -0.28
5 0.14
6 0.28
7 -0.29
8 -0.29
9 0.14

> <PUBCHEM_EFFECTIVE_ROTOR_COUNT>
3

> <PUBCHEM_PHARMACOPHORE_FEATURES>
2
1 1 acceptor
7 1 2 3 4 5 6 7 rings

> <PUBCHEM_HEAVY_ATOM_COUNT>
13

> <PUBCHEM_ATOM_DEF_STEREO_COUNT>
0

> <PUBCHEM_ATOM_UDEF_STEREO_COUNT>
1

> <PUBCHEM_BOND_DEF_STEREO_COUNT>
1

> <PUBCHEM_BOND_UDEF_STEREO_COUNT>
0

> <PUBCHEM_ISOTOPIC_ATOM_COUNT>
0

> <PUBCHEM_COMPONENT_COUNT>
1

> <PUBCHEM_CACTVS_TAUTO_COUNT>
1

> <PUBCHEM_CONFORMER_ID>
07DA617000000004

> <PUBCHEM_MMFF94_ENERGY>
32.8447

> <PUBCHEM_FEATURE_SELFOVERLAP>
10.148

> <PUBCHEM_SHAPE_FINGERPRINT>
11031198 65 18410577288366404177
12251169 10 10881404235718256529
12654215 9 18334579010352810996
12932764 1 17748832937902798283
13764800 53 16805333154360447081
13839132 238 17530962479913219123
14115302 16 17274812546088200263
14250199 8 18411702080098247237
14251745 187 18261952947123297396
15219456 202 18259993694590172907
15775835 57 18202283644973668701
16945 1 18341065059467777698
18186145 218 18272102633405951192
20201158 50 18336268946507621306
20281407 28 11743849083413722521
20606313 2 18410012100603133406
20645476 183 17917424328902970703
20653085 51 18408884049165679825
21524375 3 17904766927084859576
21639500 275 18341615970385249104
21947302 44 18261108595027793584
22802520 49 18334582312972002825
232386 152 16056592140702403767
23557571 272 17314805202853115291
23598291 2 17628936546328071739
25 1 18188494566675912155
2748010 2 17909569568263137944
3060560 45 18341888554642689367
63268167 104 18273219711391835266
77492 1 17418104199669969715
8030462 33 17561367287814578843
81228 2 17547301003790559586

> <PUBCHEM_SHAPE_MULTIPOLES>
261.66
5.69
1.98
1.23
3.56
0.72
-0.07
1.4
1.71
-1.78
0.28
0.64
-0.15
0.33

> <PUBCHEM_SHAPE_SELFOVERLAP>
515.158

> <PUBCHEM_SHAPE_VOLUME>
155.7

> <PUBCHEM_COORDINATE_TYPE>
2
5
10

$$$$
