25181402
  -OEChem-02172602303D

 49 52  0     1  0  0  0  0  0999 V2000
    0.1207    1.0762    0.9903 O   0  0  0  0  0  0  0  0  0  0  0  0
   -2.1988    0.6559    2.4888 O   0  0  0  0  0  0  0  0  0  0  0  0
   -2.3142   -0.5684   -2.6424 O   0  0  0  0  0  0  0  0  0  0  0  0
    3.6825   -0.8756   -0.2371 C   0  0  0  0  0  0  0  0  0  0  0  0
    2.4271   -0.8982    0.5968 C   0  0  1  0  0  0  0  0  0  0  0  0
    3.0000    0.4175    0.1195 C   0  0  2  0  0  0  0  0  0  0  0  0
    1.2104   -1.5702    0.0303 C   0  0  0  0  0  0  0  0  0  0  0  0
    2.4361    1.2495   -0.9883 C   0  0  0  0  0  0  0  0  0  0  0  0
    4.9962   -1.2219    0.3817 C   0  0  0  0  0  0  0  0  0  0  0  0
    3.5683   -1.3351   -1.6526 C   0  0  0  0  0  0  0  0  0  0  0  0
   -0.0978   -1.3682    0.8332 C   0  0  2  0  0  0  0  0  0  0  0  0
    1.5792    2.4130   -0.4779 C   0  0  0  0  0  0  0  0  0  0  0  0
   -0.7771    0.0164    0.6295 C   0  0  2  0  0  0  0  0  0  0  0  0
    0.1365    2.0628   -0.0755 C   0  0  1  0  0  0  0  0  0  0  0  0
   -1.1882    0.3218   -0.7627 C   0  0  0  0  0  0  0  0  0  0  0  0
    0.1099   -1.6905    2.3234 C   0  0  0  0  0  0  0  0  0  0  0  0
   -0.6586    1.4623   -1.1923 C   0  0  0  0  0  0  0  0  0  0  0  0
   -2.0934    0.0860    1.4054 C   0  0  0  0  0  0  0  0  0  0  0  0
   -0.5665    3.3176    0.4583 C   0  0  0  0  0  0  0  0  0  0  0  0
   -2.2721   -0.4076   -1.4305 C   0  0  0  0  0  0  0  0  0  0  0  0
   -3.2705   -0.6223    0.8156 C   0  0  0  0  0  0  0  0  0  0  0  0
   -3.3387   -0.8955   -0.4989 C   0  0  0  0  0  0  0  0  0  0  0  0
   -4.4909   -1.6257   -1.1149 C   0  0  0  0  0  0  0  0  0  0  0  0
    2.5734   -1.1456    1.6428 H   0  0  0  0  0  0  0  0  0  0  0  0
    3.4893    1.0365    0.8659 H   0  0  0  0  0  0  0  0  0  0  0  0
    1.0065   -1.2919   -1.0053 H   0  0  0  0  0  0  0  0  0  0  0  0
    1.4215   -2.6482    0.0116 H   0  0  0  0  0  0  0  0  0  0  0  0
    1.8607    0.6863   -1.7243 H   0  0  0  0  0  0  0  0  0  0  0  0
    3.2873    1.6806   -1.5315 H   0  0  0  0  0  0  0  0  0  0  0  0
   -0.7889   -2.1374    0.4588 H   0  0  0  0  0  0  0  0  0  0  0  0
    5.1478   -2.3064    0.3871 H   0  0  0  0  0  0  0  0  0  0  0  0
    5.0619   -0.8732    1.4182 H   0  0  0  0  0  0  0  0  0  0  0  0
    5.8197   -0.7621   -0.1747 H   0  0  0  0  0  0  0  0  0  0  0  0
    3.7074   -2.4221   -1.6985 H   0  0  0  0  0  0  0  0  0  0  0  0
    4.3703   -0.8858   -2.2509 H   0  0  0  0  0  0  0  0  0  0  0  0
    2.6400   -1.1257   -2.1835 H   0  0  0  0  0  0  0  0  0  0  0  0
    2.0899    2.8745    0.3776 H   0  0  0  0  0  0  0  0  0  0  0  0
    1.5445    3.1744   -1.2692 H   0  0  0  0  0  0  0  0  0  0  0  0
   -0.8777    1.9504   -2.1306 H   0  0  0  0  0  0  0  0  0  0  0  0
    0.6443   -0.8896    2.8444 H   0  0  0  0  0  0  0  0  0  0  0  0
    0.6741   -2.6212    2.4467 H   0  0  0  0  0  0  0  0  0  0  0  0
   -0.8497   -1.8320    2.8315 H   0  0  0  0  0  0  0  0  0  0  0  0
   -0.0478    3.7035    1.3436 H   0  0  0  0  0  0  0  0  0  0  0  0
   -1.5925    3.0984    0.7771 H   0  0  0  0  0  0  0  0  0  0  0  0
   -0.6056    4.1120   -0.2948 H   0  0  0  0  0  0  0  0  0  0  0  0
   -4.0628   -0.9043    1.5004 H   0  0  0  0  0  0  0  0  0  0  0  0
   -4.9908   -0.9966   -1.8587 H   0  0  0  0  0  0  0  0  0  0  0  0
   -5.2380   -1.9155   -0.3684 H   0  0  0  0  0  0  0  0  0  0  0  0
   -4.1426   -2.5389   -1.6084 H   0  0  0  0  0  0  0  0  0  0  0  0
  1 13  1  0  0  0  0
  1 14  1  0  0  0  0
  2 18  2  0  0  0  0
  3 20  2  0  0  0  0
  4  5  1  0  0  0  0
  4  6  1  0  0  0  0
  4  9  1  0  0  0  0
  4 10  1  0  0  0  0
  5  6  1  0  0  0  0
  5  7  1  0  0  0  0
  5 24  1  0  0  0  0
  6  8  1  0  0  0  0
  6 25  1  0  0  0  0
  7 11  1  0  0  0  0
  7 26  1  0  0  0  0
  7 27  1  0  0  0  0
  8 12  1  0  0  0  0
  8 28  1  0  0  0  0
  8 29  1  0  0  0  0
  9 31  1  0  0  0  0
  9 32  1  0  0  0  0
  9 33  1  0  0  0  0
 10 34  1  0  0  0  0
 10 35  1  0  0  0  0
 10 36  1  0  0  0  0
 11 13  1  0  0  0  0
 11 16  1  0  0  0  0
 11 30  1  0  0  0  0
 12 14  1  0  0  0  0
 12 37  1  0  0  0  0
 12 38  1  0  0  0  0
 13 15  1  0  0  0  0
 13 18  1  0  0  0  0
 14 17  1  0  0  0  0
 14 19  1  0  0  0  0
 15 17  2  0  0  0  0
 15 20  1  0  0  0  0
 16 40  1  0  0  0  0
 16 41  1  0  0  0  0
 16 42  1  0  0  0  0
 17 39  1  0  0  0  0
 18 21  1  0  0  0  0
 19 43  1  0  0  0  0
 19 44  1  0  0  0  0
 19 45  1  0  0  0  0
 20 22  1  0  0  0  0
 21 22  2  0  0  0  0
 21 46  1  0  0  0  0
 22 23  1  0  0  0  0
 23 47  1  0  0  0  0
 23 48  1  0  0  0  0
 23 49  1  0  0  0  0
M  END
> <PUBCHEM_COMPOUND_CID>
25181402

> <PUBCHEM_CONFORMER_RMSD>
0.6

> <PUBCHEM_CONFORMER_DIVERSEORDER>
1

> <PUBCHEM_MMFF94_PARTIAL_CHARGES>
23
1 -0.56
10 0.09
13 0.48
14 0.42
15 -0.12
17 -0.29
18 0.49
2 -0.57
20 0.54
21 -0.14
22 -0.12
23 0.14
24 0.1
25 0.1
3 -0.57
39 0.15
4 -0.19
46 0.15
5 -0.19
6 -0.19
7 0.09
8 0.09
9 0.09

> <PUBCHEM_EFFECTIVE_ROTOR_COUNT>
1.2

> <PUBCHEM_PHARMACOPHORE_FEATURES>
6
1 1 acceptor
1 2 acceptor
1 3 acceptor
3 4 9 10 hydrophobe
5 1 13 14 15 17 rings
6 13 15 18 20 21 22 rings

> <PUBCHEM_HEAVY_ATOM_COUNT>
23

> <PUBCHEM_ATOM_DEF_STEREO_COUNT>
5

> <PUBCHEM_ATOM_UDEF_STEREO_COUNT>
0

> <PUBCHEM_BOND_DEF_STEREO_COUNT>
0

> <PUBCHEM_BOND_UDEF_STEREO_COUNT>
0

> <PUBCHEM_ISOTOPIC_ATOM_COUNT>
0

> <PUBCHEM_COMPONENT_COUNT>
1

> <PUBCHEM_CACTVS_TAUTO_COUNT>
3

> <PUBCHEM_CONFORMER_ID>
01803CDA00000001

> <PUBCHEM_MMFF94_ENERGY>
73.6963

> <PUBCHEM_FEATURE_SELFOVERLAP>
30.577

> <PUBCHEM_SHAPE_FINGERPRINT>
10863032 1 18121223340000919183
11578080 2 17702358754808966537
11961588 58 15792009059992847726
12236239 1 18131073757748342443
12363563 72 18334293150304142574
12553582 1 18263383446421534362
12596599 1 18271539648929586199
12788726 201 18121765141825850137
13140716 1 18116453594520317842
13149001 5 18043531813822348051
13583140 156 15266771110222432674
13911987 19 18114472248902737158
15163728 17 13769302226688550767
15848702 151 18413393150451218143
16752209 62 17822286843241452994
16945 1 18187654599932409058
17349148 13 17968653810062807258
17357779 13 18334009480409291604
1813 80 18202285813852921663
18186145 218 17749103409051749439
19010151 120 18413103970002199062
200 152 18261107456977718922
21731516 1 18272379659002460252
22112679 90 17988657306104594521
22182313 1 17315639770849101219
22907989 373 16878245072769013510
229495 10 16519903071005179885
2334 1 17828506973930700618
23402539 116 18337667517246417930
23419403 2 17387999665912153737
23526113 38 18041551572016650037
23559900 14 15791724200945807146
238 59 17900524976622289213
2748010 2 17827096287563935114
3286 77 18189621703765496567
3323516 105 18041549351861215863
34934 24 18192995907103272169
57527585 103 16664041387116084570
77492 1 17916599750868857457

> <PUBCHEM_SHAPE_MULTIPOLES>
455.72
6.82
2.53
1.93
2.57
1.96
0.04
-4.19
-2.14
0.5
0.37
-1.33
-0.5
-0.48

> <PUBCHEM_SHAPE_SELFOVERLAP>
988.901

> <PUBCHEM_SHAPE_VOLUME>
249.7

> <PUBCHEM_COORDINATE_TYPE>
2
5
10

$$$$
