315227
  -OEChem-02172602363D

 43 46  0     1  0  0  0  0  0999 V2000
   -1.3445   -1.7586    0.4216 O   0  0  0  0  0  0  0  0  0  0  0  0
    1.3495   -2.6091    0.7039 O   0  0  0  0  0  0  0  0  0  0  0  0
   -0.7677    0.7473   -2.7753 O   0  0  0  0  0  0  0  0  0  0  0  0
    3.5987    2.2808   -0.5099 O   0  0  0  0  0  0  0  0  0  0  0  0
    4.6058    0.7041    1.5435 O   0  0  0  0  0  0  0  0  0  0  0  0
   -5.2111    0.6324    1.7497 O   0  0  0  0  0  0  0  0  0  0  0  0
    0.1093   -1.0648   -1.4574 C   0  0  2  0  0  0  0  0  0  0  0  0
   -0.6061   -2.2023   -0.7259 C   0  0  1  0  0  0  0  0  0  0  0  0
    1.2991   -0.5771   -0.6626 C   0  0  0  0  0  0  0  0  0  0  0  0
    0.4357   -3.1974   -0.2283 C   0  0  0  0  0  0  0  0  0  0  0  0
   -0.9000    0.0073   -1.8059 C   0  0  0  0  0  0  0  0  0  0  0  0
    1.8455   -1.3805    0.3507 C   0  0  0  0  0  0  0  0  0  0  0  0
   -2.0568    0.1542   -0.9020 C   0  0  0  0  0  0  0  0  0  0  0  0
   -2.2046   -0.7284    0.1668 C   0  0  0  0  0  0  0  0  0  0  0  0
    1.9213    0.6479   -0.9494 C   0  0  0  0  0  0  0  0  0  0  0  0
    2.9445   -0.9395    1.0955 C   0  0  0  0  0  0  0  0  0  0  0  0
    3.0256    1.0809   -0.2124 C   0  0  0  0  0  0  0  0  0  0  0  0
   -2.9777    1.1885   -1.0949 C   0  0  0  0  0  0  0  0  0  0  0  0
   -3.2590   -0.5581    1.0660 C   0  0  0  0  0  0  0  0  0  0  0  0
    3.5327    0.2907    0.8143 C   0  0  0  0  0  0  0  0  0  0  0  0
   -4.1784    0.4738    0.8773 C   0  0  0  0  0  0  0  0  0  0  0  0
   -4.0401    1.3431   -0.2041 C   0  0  0  0  0  0  0  0  0  0  0  0
    3.0958    3.4264    0.1745 C   0  0  0  0  0  0  0  0  0  0  0  0
    5.8971    0.3307    1.0663 C   0  0  0  0  0  0  0  0  0  0  0  0
   -6.1144    1.7078    1.4980 C   0  0  0  0  0  0  0  0  0  0  0  0
    0.4930   -1.4673   -2.4055 H   0  0  0  0  0  0  0  0  0  0  0  0
   -1.3044   -2.7161   -1.4008 H   0  0  0  0  0  0  0  0  0  0  0  0
   -0.0593   -4.0185    0.3021 H   0  0  0  0  0  0  0  0  0  0  0  0
    1.0059   -3.6333   -1.0577 H   0  0  0  0  0  0  0  0  0  0  0  0
    1.5521    1.2788   -1.7537 H   0  0  0  0  0  0  0  0  0  0  0  0
    3.3464   -1.5621    1.8917 H   0  0  0  0  0  0  0  0  0  0  0  0
   -2.8788    1.8852   -1.9228 H   0  0  0  0  0  0  0  0  0  0  0  0
   -3.3704   -1.2341    1.9103 H   0  0  0  0  0  0  0  0  0  0  0  0
   -4.7180    2.1650   -0.4083 H   0  0  0  0  0  0  0  0  0  0  0  0
    3.6550    4.3020   -0.1663 H   0  0  0  0  0  0  0  0  0  0  0  0
    3.2342    3.3215    1.2552 H   0  0  0  0  0  0  0  0  0  0  0  0
    2.0363    3.5762   -0.0561 H   0  0  0  0  0  0  0  0  0  0  0  0
    6.6463    0.7412    1.7487 H   0  0  0  0  0  0  0  0  0  0  0  0
    6.0721    0.7408    0.0667 H   0  0  0  0  0  0  0  0  0  0  0  0
    5.9990   -0.7590    1.0489 H   0  0  0  0  0  0  0  0  0  0  0  0
   -6.6411    1.5767    0.5466 H   0  0  0  0  0  0  0  0  0  0  0  0
   -5.6124    2.6790    1.5644 H   0  0  0  0  0  0  0  0  0  0  0  0
   -6.8719    1.6851    2.2882 H   0  0  0  0  0  0  0  0  0  0  0  0
  1  8  1  0  0  0  0
  1 14  1  0  0  0  0
  2 10  1  0  0  0  0
  2 12  1  0  0  0  0
  3 11  2  0  0  0  0
  4 17  1  0  0  0  0
  4 23  1  0  0  0  0
  5 20  1  0  0  0  0
  5 24  1  0  0  0  0
  6 21  1  0  0  0  0
  6 25  1  0  0  0  0
  7  8  1  0  0  0  0
  7  9  1  0  0  0  0
  7 11  1  0  0  0  0
  7 26  1  0  0  0  0
  8 10  1  0  0  0  0
  8 27  1  0  0  0  0
  9 12  1  0  0  0  0
  9 15  2  0  0  0  0
 10 28  1  0  0  0  0
 10 29  1  0  0  0  0
 11 13  1  0  0  0  0
 12 16  2  0  0  0  0
 13 14  2  0  0  0  0
 13 18  1  0  0  0  0
 14 19  1  0  0  0  0
 15 17  1  0  0  0  0
 15 30  1  0  0  0  0
 16 20  1  0  0  0  0
 16 31  1  0  0  0  0
 17 20  2  0  0  0  0
 18 22  2  0  0  0  0
 18 32  1  0  0  0  0
 19 21  2  0  0  0  0
 19 33  1  0  0  0  0
 21 22  1  0  0  0  0
 22 34  1  0  0  0  0
 23 35  1  0  0  0  0
 23 36  1  0  0  0  0
 23 37  1  0  0  0  0
 24 38  1  0  0  0  0
 24 39  1  0  0  0  0
 24 40  1  0  0  0  0
 25 41  1  0  0  0  0
 25 42  1  0  0  0  0
 25 43  1  0  0  0  0
M  END
> <PUBCHEM_COMPOUND_CID>
315227

> <PUBCHEM_CONFORMER_RMSD>
0.8

> <PUBCHEM_CONFORMER_DIVERSEORDER>
5
3
8
2
6
1
7
4

> <PUBCHEM_MMFF94_PARTIAL_CHARGES>
30
1 -0.36
10 0.28
11 0.42
12 0.08
13 0.09
14 0.08
15 -0.15
16 -0.15
17 0.08
18 -0.15
19 -0.15
2 -0.36
20 0.08
21 0.08
22 -0.15
23 0.28
24 0.28
25 0.28
3 -0.57
30 0.15
31 0.15
32 0.15
33 0.15
34 0.15
4 -0.36
5 -0.36
6 -0.36
7 0.2
8 0.28
9 -0.14

> <PUBCHEM_EFFECTIVE_ROTOR_COUNT>
3.6

> <PUBCHEM_PHARMACOPHORE_FEATURES>
10
1 1 acceptor
1 2 acceptor
1 3 acceptor
1 4 acceptor
1 5 acceptor
1 6 acceptor
6 1 7 8 11 13 14 rings
6 13 14 18 19 21 22 rings
6 2 7 8 9 10 12 rings
6 9 12 15 16 17 20 rings

> <PUBCHEM_HEAVY_ATOM_COUNT>
25

> <PUBCHEM_ATOM_DEF_STEREO_COUNT>
0

> <PUBCHEM_ATOM_UDEF_STEREO_COUNT>
2

> <PUBCHEM_BOND_DEF_STEREO_COUNT>
0

> <PUBCHEM_BOND_UDEF_STEREO_COUNT>
0

> <PUBCHEM_ISOTOPIC_ATOM_COUNT>
0

> <PUBCHEM_COMPONENT_COUNT>
1

> <PUBCHEM_CACTVS_TAUTO_COUNT>
2

> <PUBCHEM_CONFORMER_ID>
0004CF5B00000005

> <PUBCHEM_MMFF94_ENERGY>
109.8042

> <PUBCHEM_FEATURE_SELFOVERLAP>
50.917

> <PUBCHEM_SHAPE_FINGERPRINT>
10042902 136 13623541163851822776
10165383 225 18262537947496390780
10498660 4 15482665746085397075
11640471 11 17488441036509419423
11796584 16 13045947915194164977
11961588 58 15554153822774647683
12035758 1 18263914455041474418
12390115 104 18120662593751200164
12633257 1 18187362151113823185
12670546 177 12463571789779359976
12788726 201 17627217202348128879
12824470 246 12540687133105081229
12892183 10 17604425185233948275
12895836 83 15913318096639476817
13140716 1 18188760773413196172
13583140 156 17240745277486069263
14178342 30 17968674812315975091
14341114 328 18412550937497789329
14931854 50 11527955551251891064
14955137 171 18259982640130342866
15238133 3 18201723981108397104
15342168 16 18343308063341297937
15475509 8 18270975570512602476
1813 80 13262684677341903490
19784866 240 12757160073704174897
20567600 234 18410299099672944433
20626108 58 13045955620207231435
20775438 99 9005050156639924705
20775530 9 7852483927169110680
20871999 31 11240004464075406475
21033648 29 18042692702520888165
21731228 192 18336260223503266470
21756936 100 17846207891055991034
23559900 14 18126871321249172143
25222932 49 14927654391281546929
2838139 119 17131828750866088081
3472631 163 16702012089257840361
392239 28 18408609171316959833
474 4 18272938202382498801
49207404 50 18187371995558653947
5104073 3 18118103987654785816
59755656 520 18059851770598226646
633830 44 18202570574759136717
7226269 152 17988916800087531384
7808743 9 18195816399410607688
7970288 3 12396297041194878880
960060 61 9655284918025093449

> <PUBCHEM_SHAPE_MULTIPOLES>
479.27
10.53
2.82
1.74
3.68
0.16
-0.55
-7.93
7.16
-1.63
0.08
0.84
-0.28
-0.66

> <PUBCHEM_SHAPE_SELFOVERLAP>
1061.677

> <PUBCHEM_SHAPE_VOLUME>
255.5

> <PUBCHEM_COORDINATE_TYPE>
2
5
10

$$$$
