10085008
  -OEChem-02172602253D

 38 41  0     0  0  0  0  0  0999 V2000
   -3.3681    0.6027    0.0048 O   0  0  0  0  0  0  0  0  0  0  0  0
    6.0410   -1.0521   -0.0020 O   0  0  0  0  0  0  0  0  0  0  0  0
    1.1651   -1.3794    0.0019 N   0  0  0  0  0  0  0  0  0  0  0  0
   -4.0640   -0.6635   -0.0019 C   0  0  0  0  0  0  0  0  0  0  0  0
    0.1666   -0.4300    0.0018 C   0  0  0  0  0  0  0  0  0  0  0  0
   -1.2331   -0.5556    0.0029 C   0  0  0  0  0  0  0  0  0  0  0  0
    0.7988    0.8170    0.0006 C   0  0  0  0  0  0  0  0  0  0  0  0
   -2.0004    0.6114    0.0025 C   0  0  0  0  0  0  0  0  0  0  0  0
    2.2115    0.5872   -0.0001 C   0  0  0  0  0  0  0  0  0  0  0  0
   -1.3918    1.8646    0.0015 C   0  0  0  0  0  0  0  0  0  0  0  0
    2.4077   -0.7925    0.0009 C   0  0  0  0  0  0  0  0  0  0  0  0
   -3.1956   -1.9014    0.0020 C   0  0  0  0  0  0  0  0  0  0  0  0
    0.0021    1.9813    0.0002 C   0  0  0  0  0  0  0  0  0  0  0  0
   -1.8612   -1.8605    0.0047 C   0  0  0  0  0  0  0  0  0  0  0  0
   -4.9581   -0.6702    1.2436 C   0  0  0  0  0  0  0  0  0  0  0  0
   -4.9393   -0.6657   -1.2609 C   0  0  0  0  0  0  0  0  0  0  0  0
    3.3431    1.4296   -0.0014 C   0  0  0  0  0  0  0  0  0  0  0  0
   -2.2106    3.1158    0.0015 C   0  0  0  0  0  0  0  0  0  0  0  0
    3.6794   -1.3770    0.0006 C   0  0  0  0  0  0  0  0  0  0  0  0
    4.6218    0.8607   -0.0020 C   0  0  0  0  0  0  0  0  0  0  0  0
    4.7850   -0.5224   -0.0011 C   0  0  0  0  0  0  0  0  0  0  0  0
   -3.6886   -2.8707    0.0021 H   0  0  0  0  0  0  0  0  0  0  0  0
    1.0088   -2.3776    0.0028 H   0  0  0  0  0  0  0  0  0  0  0  0
    0.4781    2.9585   -0.0007 H   0  0  0  0  0  0  0  0  0  0  0  0
   -1.2711   -2.7680    0.0072 H   0  0  0  0  0  0  0  0  0  0  0  0
   -4.3536   -0.6242    2.1575 H   0  0  0  0  0  0  0  0  0  0  0  0
   -5.6097    0.2114    1.2615 H   0  0  0  0  0  0  0  0  0  0  0  0
   -5.5883   -1.5650    1.2929 H   0  0  0  0  0  0  0  0  0  0  0  0
   -5.5686   -1.5604   -1.3228 H   0  0  0  0  0  0  0  0  0  0  0  0
   -5.5907    0.2158   -1.2856 H   0  0  0  0  0  0  0  0  0  0  0  0
   -4.3213   -0.6166   -2.1657 H   0  0  0  0  0  0  0  0  0  0  0  0
    3.2318    2.5103   -0.0021 H   0  0  0  0  0  0  0  0  0  0  0  0
   -2.8422    3.1574    0.8952 H   0  0  0  0  0  0  0  0  0  0  0  0
   -1.5859    4.0154   -0.0002 H   0  0  0  0  0  0  0  0  0  0  0  0
   -2.8448    3.1558   -0.8904 H   0  0  0  0  0  0  0  0  0  0  0  0
    3.8015   -2.4555    0.0013 H   0  0  0  0  0  0  0  0  0  0  0  0
    5.4875    1.5188   -0.0032 H   0  0  0  0  0  0  0  0  0  0  0  0
    6.6898   -0.3274   -0.0032 H   0  0  0  0  0  0  0  0  0  0  0  0
  1  4  1  0  0  0  0
  1  8  1  0  0  0  0
  2 21  1  0  0  0  0
  2 38  1  0  0  0  0
  3  5  1  0  0  0  0
  3 11  1  0  0  0  0
  3 23  1  0  0  0  0
  4 12  1  0  0  0  0
  4 15  1  0  0  0  0
  4 16  1  0  0  0  0
  5  6  1  0  0  0  0
  5  7  2  0  0  0  0
  6  8  2  0  0  0  0
  6 14  1  0  0  0  0
  7  9  1  0  0  0  0
  7 13  1  0  0  0  0
  8 10  1  0  0  0  0
  9 11  2  0  0  0  0
  9 17  1  0  0  0  0
 10 13  2  0  0  0  0
 10 18  1  0  0  0  0
 11 19  1  0  0  0  0
 12 14  2  0  0  0  0
 12 22  1  0  0  0  0
 13 24  1  0  0  0  0
 14 25  1  0  0  0  0
 15 26  1  0  0  0  0
 15 27  1  0  0  0  0
 15 28  1  0  0  0  0
 16 29  1  0  0  0  0
 16 30  1  0  0  0  0
 16 31  1  0  0  0  0
 17 20  2  0  0  0  0
 17 32  1  0  0  0  0
 18 33  1  0  0  0  0
 18 34  1  0  0  0  0
 18 35  1  0  0  0  0
 19 21  2  0  0  0  0
 19 36  1  0  0  0  0
 20 21  1  0  0  0  0
 20 37  1  0  0  0  0
M  END
> <PUBCHEM_COMPOUND_CID>
10085008

> <PUBCHEM_CONFORMER_RMSD>
0.6

> <PUBCHEM_CONFORMER_DIVERSEORDER>
1

> <PUBCHEM_MMFF94_PARTIAL_CHARGES>
25
1 -0.36
10 -0.14
11 -0.15
12 -0.29
13 -0.15
14 -0.18
17 -0.15
18 0.14
19 -0.15
2 -0.53
20 -0.15
21 0.08
22 0.15
23 0.27
24 0.15
25 0.15
3 0.03
32 0.15
36 0.15
37 0.15
38 0.45
4 0.42
5 -0.15
6 0.03
8 0.08

> <PUBCHEM_EFFECTIVE_ROTOR_COUNT>
0.4

> <PUBCHEM_PHARMACOPHORE_FEATURES>
9
1 1 acceptor
1 2 donor
1 3 cation
1 3 donor
3 4 15 16 hydrophobe
5 3 5 7 9 11 rings
6 1 4 6 8 12 14 rings
6 5 6 7 8 10 13 rings
6 9 11 17 19 20 21 rings

> <PUBCHEM_HEAVY_ATOM_COUNT>
21

> <PUBCHEM_ATOM_DEF_STEREO_COUNT>
0

> <PUBCHEM_ATOM_UDEF_STEREO_COUNT>
0

> <PUBCHEM_BOND_DEF_STEREO_COUNT>
0

> <PUBCHEM_BOND_UDEF_STEREO_COUNT>
0

> <PUBCHEM_ISOTOPIC_ATOM_COUNT>
0

> <PUBCHEM_COMPONENT_COUNT>
1

> <PUBCHEM_CACTVS_TAUTO_COUNT>
9

> <PUBCHEM_CONFORMER_ID>
0099E29000000001

> <PUBCHEM_MMFF94_ENERGY>
57.9033

> <PUBCHEM_FEATURE_SELFOVERLAP>
45.877

> <PUBCHEM_SHAPE_FINGERPRINT>
10 15 18270665577132388512
10319926 262 18196632035918481226
10616163 171 18411982433998816326
10906281 52 18341068366734877479
10967382 1 18338797939109952641
11045515 52 18040432217872316069
11315181 36 17967818241296755842
12107183 9 17615119993567687234
12236239 1 17846218895215760471
12403259 226 18412538812942678504
12403259 415 18131062732704710264
12553582 1 18409440414807733379
12788726 201 18335415734026832233
13140716 1 18195253432355997091
13288520 33 18412265025466252118
13544653 18 18408605893987731341
13760787 5 18410013277529700125
138480 1 15312098133111407785
13862211 1 18411696608077751551
14341114 176 18408046225626544996
14508225 48 18337098034431929901
14790565 3 18339088103454986369
15196674 1 18410855477308056961
15788980 27 17822290210126768543
16752209 62 18336531730161063345
16945 1 18410575119513609573
17349148 13 17894352185326536216
17357779 13 18336811066302382181
17492 89 18265332815918679082
1813 80 17530965812665539948
18927931 339 18411426098184150879
19141452 34 18130509725183944983
200 152 18202560700671572679
20510252 161 18271246023622186209
21029758 11 18341325673904557945
21236236 1 18341613672915596209
21267235 1 18409456890001756178
21792934 111 18411693292885297385
221490 88 18118690060741567195
22182313 1 17916314835633879830
2297311 6 18341906173009675622
23402539 116 18343015588868888039
23557571 272 18272939280493253636
23559900 14 18338228375345154800
23845131 108 17476374803150500025
26918003 58 18040433321372539915
2871803 45 18335134293578670766
3004659 81 18186795902699306326
335352 9 18410573972783761205
34934 24 18339071709094929223
350125 39 18411421722166500320
4214541 1 18410856517070197568
474 4 17241618380625357364
5104073 3 18340483358014203408
5283173 99 18115574968639306037
559249 180 18191019015704361610
59755656 215 18409450250409929094
9709674 26 18341337686711930718

> <PUBCHEM_SHAPE_MULTIPOLES>
415.45
10.86
2.36
0.76
5.33
1.38
0
-3.83
-0.01
-1.01
0
-0.78
-0.09
0

> <PUBCHEM_SHAPE_SELFOVERLAP>
939.49

> <PUBCHEM_SHAPE_VOLUME>
221.8

> <PUBCHEM_COORDINATE_TYPE>
2
5
10

$$$$
