21633105
  -OEChem-02172602213D

 50 52  0     1  0  0  0  0  0999 V2000
    0.5331   -1.0064    0.6401 O   0  0  0  0  0  0  0  0  0  0  0  0
   -2.9805   -3.1871   -0.4788 O   0  0  0  0  0  0  0  0  0  0  0  0
   -0.7448    0.8539    1.1839 O   0  0  0  0  0  0  0  0  0  0  0  0
    1.8854    0.3910   -0.6492 O   0  0  0  0  0  0  0  0  0  0  0  0
    2.7139   -1.4729    2.3821 O   0  0  0  0  0  0  0  0  0  0  0  0
    5.3029   -1.1707    1.0086 O   0  0  0  0  0  0  0  0  0  0  0  0
    5.4116    1.3495   -0.4031 O   0  0  0  0  0  0  0  0  0  0  0  0
   -5.3281    1.1733    0.1728 O   0  0  0  0  0  0  0  0  0  0  0  0
   -4.3492    2.9098    1.2939 O   0  0  0  0  0  0  0  0  0  0  0  0
    1.8333    2.6007   -2.2834 O   0  0  0  0  0  0  0  0  0  0  0  0
   -1.8788   -1.1791    0.2960 C   0  0  2  0  0  0  0  0  0  0  0  0
   -1.9552   -2.2436   -0.8197 C   0  0  2  0  0  0  0  0  0  0  0  0
   -3.1600   -0.3561    0.0411 C   0  0  2  0  0  0  0  0  0  0  0  0
   -2.4431   -1.4572   -2.0401 C   0  0  0  0  0  0  0  0  0  0  0  0
   -3.3305   -0.3371   -1.4860 C   0  0  0  0  0  0  0  0  0  0  0  0
   -0.6344   -0.2644    0.2888 C   0  0  2  0  0  0  0  0  0  0  0  0
   -3.0849    1.0010    0.6543 C   0  0  0  0  0  0  0  0  0  0  0  0
   -0.6885   -3.0340   -1.1134 C   0  0  0  0  0  0  0  0  0  0  0  0
    1.6938   -0.1758    0.6448 C   0  0  2  0  0  0  0  0  0  0  0  0
   -1.9581    1.4862    1.1839 C   0  0  0  0  0  0  0  0  0  0  0  0
    2.8915   -1.0430    1.0326 C   0  0  1  0  0  0  0  0  0  0  0  0
    4.2023   -0.2648    0.9163 C   0  0  2  0  0  0  0  0  0  0  0  0
    4.2980    0.4603   -0.4261 C   0  0  1  0  0  0  0  0  0  0  0  0
    3.0209    1.2562   -0.7058 C   0  0  1  0  0  0  0  0  0  0  0  0
   -4.2954    1.8167    0.7577 C   0  0  0  0  0  0  0  0  0  0  0  0
    3.0449    1.8937   -2.0914 C   0  0  0  0  0  0  0  0  0  0  0  0
   -1.9519   -1.6611    1.2809 H   0  0  0  0  0  0  0  0  0  0  0  0
   -3.9983   -0.9119    0.4847 H   0  0  0  0  0  0  0  0  0  0  0  0
   -1.6021   -1.0083   -2.5821 H   0  0  0  0  0  0  0  0  0  0  0  0
   -3.0040   -2.0776   -2.7476 H   0  0  0  0  0  0  0  0  0  0  0  0
   -4.3782   -0.5154   -1.7546 H   0  0  0  0  0  0  0  0  0  0  0  0
   -3.0434    0.6223   -1.9326 H   0  0  0  0  0  0  0  0  0  0  0  0
   -0.5010    0.1393   -0.7235 H   0  0  0  0  0  0  0  0  0  0  0  0
    0.1202   -2.4003   -1.4894 H   0  0  0  0  0  0  0  0  0  0  0  0
   -0.8783   -3.8093   -1.8649 H   0  0  0  0  0  0  0  0  0  0  0  0
   -0.3407   -3.5532   -0.2136 H   0  0  0  0  0  0  0  0  0  0  0  0
    1.5693    0.6206    1.3901 H   0  0  0  0  0  0  0  0  0  0  0  0
   -3.0871   -3.8013   -1.2252 H   0  0  0  0  0  0  0  0  0  0  0  0
   -1.8730    2.4318    1.7025 H   0  0  0  0  0  0  0  0  0  0  0  0
    2.9254   -1.9479    0.4143 H   0  0  0  0  0  0  0  0  0  0  0  0
    4.3156    0.4388    1.7494 H   0  0  0  0  0  0  0  0  0  0  0  0
    4.4775   -0.2680   -1.2264 H   0  0  0  0  0  0  0  0  0  0  0  0
    2.8853    2.0574    0.0336 H   0  0  0  0  0  0  0  0  0  0  0  0
    3.1110    1.1281   -2.8717 H   0  0  0  0  0  0  0  0  0  0  0  0
    3.8801    2.5923   -2.1979 H   0  0  0  0  0  0  0  0  0  0  0  0
    2.6839   -0.6835    2.9491 H   0  0  0  0  0  0  0  0  0  0  0  0
    5.2206   -1.8209    0.2902 H   0  0  0  0  0  0  0  0  0  0  0  0
    5.2555    2.0084    0.2949 H   0  0  0  0  0  0  0  0  0  0  0  0
   -6.1602    1.6906    0.2217 H   0  0  0  0  0  0  0  0  0  0  0  0
    1.8679    2.9937   -3.1722 H   0  0  0  0  0  0  0  0  0  0  0  0
  1 16  1  0  0  0  0
  1 19  1  0  0  0  0
  2 12  1  0  0  0  0
  2 38  1  0  0  0  0
  3 16  1  0  0  0  0
  3 20  1  0  0  0  0
  4 19  1  0  0  0  0
  4 24  1  0  0  0  0
  5 21  1  0  0  0  0
  5 46  1  0  0  0  0
  6 22  1  0  0  0  0
  6 47  1  0  0  0  0
  7 23  1  0  0  0  0
  7 48  1  0  0  0  0
  8 25  1  0  0  0  0
  8 49  1  0  0  0  0
  9 25  2  0  0  0  0
 10 26  1  0  0  0  0
 10 50  1  0  0  0  0
 11 12  1  0  0  0  0
 11 13  1  0  0  0  0
 11 16  1  0  0  0  0
 11 27  1  0  0  0  0
 12 14  1  0  0  0  0
 12 18  1  0  0  0  0
 13 15  1  0  0  0  0
 13 17  1  0  0  0  0
 13 28  1  0  0  0  0
 14 15  1  0  0  0  0
 14 29  1  0  0  0  0
 14 30  1  0  0  0  0
 15 31  1  0  0  0  0
 15 32  1  0  0  0  0
 16 33  1  0  0  0  0
 17 20  2  0  0  0  0
 17 25  1  0  0  0  0
 18 34  1  0  0  0  0
 18 35  1  0  0  0  0
 18 36  1  0  0  0  0
 19 21  1  0  0  0  0
 19 37  1  0  0  0  0
 20 39  1  0  0  0  0
 21 22  1  0  0  0  0
 21 40  1  0  0  0  0
 22 23  1  0  0  0  0
 22 41  1  0  0  0  0
 23 24  1  0  0  0  0
 23 42  1  0  0  0  0
 24 26  1  0  0  0  0
 24 43  1  0  0  0  0
 26 44  1  0  0  0  0
 26 45  1  0  0  0  0
M  END
> <PUBCHEM_COMPOUND_CID>
21633105

> <PUBCHEM_CONFORMER_RMSD>
0.8

> <PUBCHEM_CONFORMER_DIVERSEORDER>
1
27
9
32
18
17
25
24
22
8
15
41
48
10
39
40
19
5
42
29
45
16
47
46
31
36
4
21
23
6
37
13
12
28
49
7
14
52
3
51
44
34
26
38
50
43
20
2
30
11
35
33

> <PUBCHEM_MMFF94_PARTIAL_CHARGES>
29
1 -0.56
10 -0.68
12 0.28
13 0.14
16 0.56
17 -0.12
19 0.56
2 -0.68
20 -0.07
21 0.28
22 0.28
23 0.28
24 0.28
25 0.71
26 0.28
3 -0.36
38 0.4
39 0.15
4 -0.56
46 0.4
47 0.4
48 0.4
49 0.5
5 -0.68
50 0.4
6 -0.68
7 -0.68
8 -0.65
9 -0.57

> <PUBCHEM_EFFECTIVE_ROTOR_COUNT>
6.2

> <PUBCHEM_PHARMACOPHORE_FEATURES>
19
1 1 acceptor
1 10 acceptor
1 10 donor
1 2 acceptor
1 2 donor
1 3 acceptor
1 4 acceptor
1 5 acceptor
1 5 donor
1 6 acceptor
1 6 donor
1 7 acceptor
1 7 donor
1 8 acceptor
1 9 acceptor
3 8 9 25 anion
5 11 12 13 14 15 rings
6 3 11 13 16 17 20 rings
6 4 19 21 22 23 24 rings

> <PUBCHEM_HEAVY_ATOM_COUNT>
26

> <PUBCHEM_ATOM_DEF_STEREO_COUNT>
9

> <PUBCHEM_ATOM_UDEF_STEREO_COUNT>
0

> <PUBCHEM_BOND_DEF_STEREO_COUNT>
0

> <PUBCHEM_BOND_UDEF_STEREO_COUNT>
0

> <PUBCHEM_ISOTOPIC_ATOM_COUNT>
0

> <PUBCHEM_COMPONENT_COUNT>
1

> <PUBCHEM_CACTVS_TAUTO_COUNT>
1

> <PUBCHEM_CONFORMER_ID>
014A185100000001

> <PUBCHEM_MMFF94_ENERGY>
79.2

> <PUBCHEM_FEATURE_SELFOVERLAP>
96.734

> <PUBCHEM_SHAPE_FINGERPRINT>
10366900 7 15554453976754208200
10369192 42 14782117556293578366
11578080 2 17976501127170919756
11640471 11 18334868245961093644
11796584 16 17703516515442333790
12173636 292 18342740766759868543
12236239 1 18407757032097815979
12422481 6 17899134906183745557
12553582 1 17841140362312995767
12616971 3 18114175316338572178
12714826 92 17631739399236456051
12788726 201 18195532708473683811
13583140 156 17385724673565142395
13726171 33 17699595793499039008
14294032 229 18131355164464934593
15081414 286 17676209079035550988
15375358 24 16415478237945979264
16752209 62 18059283353220106399
173720 79 18412825755549185893
17818456 19 18341614759494615616
17980427 23 18341037602042709956
1813 80 17827075109328768170
20511986 3 18336535097315787644
20600515 1 17775564226069534392
20645476 183 18410017641395892299
21033650 10 17489045767846907785
22122407 14 17749679467895146693
22907989 373 18197214961332214343
23557571 272 17489311918416917544
23559900 14 17489312954136798286
23598288 3 18340211889973986787
23598291 2 18261391191186270846
312423 11 18115591581150644350
38570 142 17679336128453787868
4409770 3 15167428787196508267
474 4 17822015358385325808
5104073 3 18113332051028472664
513202 73 17392747078354828546
574716 61 18114738343242636998
633830 44 17968674812346876484
7615 1 18335418032008440740

> <PUBCHEM_SHAPE_MULTIPOLES>
476.37
10.29
2.98
1.86
5.19
0.71
0.57
-4.08
-0.97
-2.76
0.68
1.04
-0.34
-3.43

> <PUBCHEM_SHAPE_SELFOVERLAP>
1007.874

> <PUBCHEM_SHAPE_VOLUME>
262.1

> <PUBCHEM_COORDINATE_TYPE>
2
5
10

$$$$
