6430826
  -OEChem-02172602573D

 25 24  0     0  0  0  0  0  0999 V2000
   -0.0286    0.6078    1.3965 O   0  0  0  0  0  0  0  0  0  0  0  0
    1.0937    0.9526   -0.7175 C   0  0  0  0  0  0  0  0  0  0  0  0
   -2.5081    0.0155   -0.1252 C   0  0  0  0  0  0  0  0  0  0  0  0
   -0.1168    0.7281    0.1775 C   0  0  0  0  0  0  0  0  0  0  0  0
   -1.4387    0.7324   -0.5123 C   0  0  0  0  0  0  0  0  0  0  0  0
    2.3026    0.2152   -0.1948 C   0  0  0  0  0  0  0  0  0  0  0  0
   -3.8506    0.0011   -0.8013 C   0  0  0  0  0  0  0  0  0  0  0  0
   -2.4247   -0.8526    1.1029 C   0  0  0  0  0  0  0  0  0  0  0  0
    2.2885   -1.2384   -0.0877 C   0  0  0  0  0  0  0  0  0  0  0  0
    3.4063    0.8972    0.1579 C   0  0  0  0  0  0  0  0  0  0  0  0
    1.2764   -2.0589   -0.3961 C   0  0  0  0  0  0  0  0  0  0  0  0
    1.2642    2.0347   -0.7680 H   0  0  0  0  0  0  0  0  0  0  0  0
    0.8747    0.6100   -1.7362 H   0  0  0  0  0  0  0  0  0  0  0  0
   -1.4943    1.3311   -1.4172 H   0  0  0  0  0  0  0  0  0  0  0  0
   -4.0898   -1.0061   -1.1572 H   0  0  0  0  0  0  0  0  0  0  0  0
   -3.8699    0.6747   -1.6643 H   0  0  0  0  0  0  0  0  0  0  0  0
   -4.6319    0.3247   -0.1062 H   0  0  0  0  0  0  0  0  0  0  0  0
   -1.4634   -1.3649    1.2011 H   0  0  0  0  0  0  0  0  0  0  0  0
   -2.6250   -0.2639    2.0038 H   0  0  0  0  0  0  0  0  0  0  0  0
   -3.1756   -1.6503    1.0577 H   0  0  0  0  0  0  0  0  0  0  0  0
    3.1939   -1.7011    0.3023 H   0  0  0  0  0  0  0  0  0  0  0  0
    3.4484    1.9792    0.0829 H   0  0  0  0  0  0  0  0  0  0  0  0
    4.2960    0.3994    0.5312 H   0  0  0  0  0  0  0  0  0  0  0  0
    1.3926   -3.1294   -0.2571 H   0  0  0  0  0  0  0  0  0  0  0  0
    0.3339   -1.7224   -0.8071 H   0  0  0  0  0  0  0  0  0  0  0  0
  1  4  2  0  0  0  0
  2  4  1  0  0  0  0
  2  6  1  0  0  0  0
  2 12  1  0  0  0  0
  2 13  1  0  0  0  0
  3  5  2  0  0  0  0
  3  7  1  0  0  0  0
  3  8  1  0  0  0  0
  4  5  1  0  0  0  0
  5 14  1  0  0  0  0
  6  9  1  0  0  0  0
  6 10  2  0  0  0  0
  7 15  1  0  0  0  0
  7 16  1  0  0  0  0
  7 17  1  0  0  0  0
  8 18  1  0  0  0  0
  8 19  1  0  0  0  0
  8 20  1  0  0  0  0
  9 11  2  0  0  0  0
  9 21  1  0  0  0  0
 10 22  1  0  0  0  0
 10 23  1  0  0  0  0
 11 24  1  0  0  0  0
 11 25  1  0  0  0  0
M  END
> <PUBCHEM_COMPOUND_CID>
6430826

> <PUBCHEM_CONFORMER_RMSD>
0.6

> <PUBCHEM_CONFORMER_DIVERSEORDER>
5
52
18
43
88
83
78
55
65
47
33
32
76
56
36
85
61
80
79
57
82
27
77
84
59
13
37
63
64
34
69
35
41
23
45
62
19
75
21
46
40
44
31
73
14
15
38
72
86
58
53
2
10
74
26
39
20
30
66
89
4
51
25
90
68
22
16
87
28
81
3
7
48
70
17
67
29
11
9
60
50
49
24
6
12
54
42
1
8
71

> <PUBCHEM_MMFF94_PARTIAL_CHARGES>
17
1 -0.57
10 -0.3
11 -0.3
14 0.15
2 0.2
21 0.15
22 0.15
23 0.15
24 0.15
25 0.15
3 -0.28
4 0.49
5 -0.14
6 -0.14
7 0.14
8 0.14
9 -0.15

> <PUBCHEM_EFFECTIVE_ROTOR_COUNT>
4

> <PUBCHEM_PHARMACOPHORE_FEATURES>
4
1 1 acceptor
1 10 hydrophobe
1 11 hydrophobe
3 3 7 8 hydrophobe

> <PUBCHEM_HEAVY_ATOM_COUNT>
11

> <PUBCHEM_ATOM_DEF_STEREO_COUNT>
0

> <PUBCHEM_ATOM_UDEF_STEREO_COUNT>
0

> <PUBCHEM_BOND_DEF_STEREO_COUNT>
0

> <PUBCHEM_BOND_UDEF_STEREO_COUNT>
0

> <PUBCHEM_ISOTOPIC_ATOM_COUNT>
0

> <PUBCHEM_COMPONENT_COUNT>
1

> <PUBCHEM_CACTVS_TAUTO_COUNT>
8

> <PUBCHEM_CONFORMER_ID>
0062206A00000005

> <PUBCHEM_MMFF94_ENERGY>
20.348

> <PUBCHEM_FEATURE_SELFOVERLAP>
20.297

> <PUBCHEM_SHAPE_FINGERPRINT>
10219947 1 18408603686501265220
11062470 55 18408038524307383565
12897270 3 18261115162032730692
12932764 1 17632574942068549273
14251717 144 18342168960378245439
15375358 24 18260260858909952493
15775835 57 18131629014956446383
16945 1 18410583910847362964
17990270 104 18195809561685379694
19422 9 16630254644671721070
20201158 50 18334296448412030627
20279233 1 18186803586506562067
20645477 70 18341889637322588111
21730867 7 18410576188828357230
22485316 2 18272926137887890789
23402539 116 17386273380837271980
29004967 10 18409173211775290512
3248919 1 18187370925911499549
528862 383 18412257316100410078
581208 293 18341607127100210846

> <PUBCHEM_SHAPE_MULTIPOLES>
220.51
5.65
1.5
1.01
2.16
0.77
0.22
-0.06
-0.61
-0.91
-0.14
0.42
0
0.41

> <PUBCHEM_SHAPE_SELFOVERLAP>
421.73

> <PUBCHEM_SHAPE_VOLUME>
135.2

> <PUBCHEM_COORDINATE_TYPE>
2
5
10

$$$$
