10565860
  -OEChem-02172602473D

 38 40  0     0  0  0  0  0  0999 V2000
   -2.0494    1.5868    1.3373 O   0  0  0  0  0  0  0  0  0  0  0  0
   -1.3986    2.7271   -0.6336 O   0  0  0  0  0  0  0  0  0  0  0  0
   -3.4147   -0.8065    0.9422 O   0  0  0  0  0  0  0  0  0  0  0  0
    0.7535    1.4730    0.0507 N   0  0  0  0  0  0  0  0  0  0  0  0
   -1.3939   -2.8677   -0.0956 N   0  0  0  0  0  0  0  0  0  0  0  0
   -0.2623   -0.7201   -0.0214 C   0  0  0  0  0  0  0  0  0  0  0  0
    1.0036   -1.3304    0.0076 C   0  0  0  0  0  0  0  0  0  0  0  0
   -0.3252    0.6658    0.0017 C   0  0  0  0  0  0  0  0  0  0  0  0
    2.1659   -0.4917    0.0594 C   0  0  0  0  0  0  0  0  0  0  0  0
    1.9710    0.9106    0.0789 C   0  0  0  0  0  0  0  0  0  0  0  0
   -1.6028    1.4406   -0.0238 C   0  0  0  0  0  0  0  0  0  0  0  0
   -1.4079   -1.5194   -0.0718 C   0  0  0  0  0  0  0  0  0  0  0  0
    1.0201   -2.7424   -0.0173 C   0  0  0  0  0  0  0  0  0  0  0  0
    3.4958   -0.9790    0.0926 C   0  0  0  0  0  0  0  0  0  0  0  0
    3.0799    1.7504    0.1295 C   0  0  0  0  0  0  0  0  0  0  0  0
   -0.1776   -3.4454   -0.0677 C   0  0  0  0  0  0  0  0  0  0  0  0
    4.5901   -0.1172    0.1431 C   0  0  0  0  0  0  0  0  0  0  0  0
   -2.7764   -1.0114   -0.1059 C   0  0  0  0  0  0  0  0  0  0  0  0
    4.3809    1.2516    0.1617 C   0  0  0  0  0  0  0  0  0  0  0  0
   -3.4498   -0.7224   -1.4398 C   0  0  0  0  0  0  0  0  0  0  0  0
   -3.2668    2.3129    1.4468 C   0  0  0  0  0  0  0  0  0  0  0  0
   -0.9354    2.6347   -1.9748 C   0  0  0  0  0  0  0  0  0  0  0  0
   -2.3902    1.0553   -0.6338 H   0  0  0  0  0  0  0  0  0  0  0  0
    1.9463   -3.3072    0.0016 H   0  0  0  0  0  0  0  0  0  0  0  0
    3.7034   -2.0458    0.0796 H   0  0  0  0  0  0  0  0  0  0  0  0
    2.9394    2.8302    0.1446 H   0  0  0  0  0  0  0  0  0  0  0  0
   -0.1808   -4.5304   -0.0873 H   0  0  0  0  0  0  0  0  0  0  0  0
    5.5990   -0.5175    0.1677 H   0  0  0  0  0  0  0  0  0  0  0  0
    5.2247    1.9338    0.2009 H   0  0  0  0  0  0  0  0  0  0  0  0
   -4.0131   -1.6106   -1.7404 H   0  0  0  0  0  0  0  0  0  0  0  0
   -2.7088   -0.4994   -2.2128 H   0  0  0  0  0  0  0  0  0  0  0  0
   -4.1434    0.1184   -1.3484 H   0  0  0  0  0  0  0  0  0  0  0  0
   -3.5895    2.2829    2.4910 H   0  0  0  0  0  0  0  0  0  0  0  0
   -4.0494    1.8659    0.8269 H   0  0  0  0  0  0  0  0  0  0  0  0
   -3.1161    3.3587    1.1638 H   0  0  0  0  0  0  0  0  0  0  0  0
   -1.1150    3.6046   -2.4490 H   0  0  0  0  0  0  0  0  0  0  0  0
   -1.4908    1.8812   -2.5426 H   0  0  0  0  0  0  0  0  0  0  0  0
    0.1380    2.4465   -2.0419 H   0  0  0  0  0  0  0  0  0  0  0  0
  1 11  1  0  0  0  0
  1 21  1  0  0  0  0
  2 11  1  0  0  0  0
  2 22  1  0  0  0  0
  3 18  2  0  0  0  0
  4  8  2  0  0  0  0
  4 10  1  0  0  0  0
  5 12  2  0  0  0  0
  5 16  1  0  0  0  0
  6  7  2  0  0  0  0
  6  8  1  0  0  0  0
  6 12  1  0  0  0  0
  7  9  1  0  0  0  0
  7 13  1  0  0  0  0
  8 11  1  0  0  0  0
  9 10  1  0  0  0  0
  9 14  2  0  0  0  0
 10 15  2  0  0  0  0
 11 23  1  0  0  0  0
 12 18  1  0  0  0  0
 13 16  2  0  0  0  0
 13 24  1  0  0  0  0
 14 17  1  0  0  0  0
 14 25  1  0  0  0  0
 15 19  1  0  0  0  0
 15 26  1  0  0  0  0
 16 27  1  0  0  0  0
 17 19  2  0  0  0  0
 17 28  1  0  0  0  0
 18 20  1  0  0  0  0
 19 29  1  0  0  0  0
 20 30  1  0  0  0  0
 20 31  1  0  0  0  0
 20 32  1  0  0  0  0
 21 33  1  0  0  0  0
 21 34  1  0  0  0  0
 21 35  1  0  0  0  0
 22 36  1  0  0  0  0
 22 37  1  0  0  0  0
 22 38  1  0  0  0  0
M  END
> <PUBCHEM_COMPOUND_CID>
10565860

> <PUBCHEM_CONFORMER_RMSD>
0.6

> <PUBCHEM_CONFORMER_DIVERSEORDER>
1
2
6
4
5
3

> <PUBCHEM_MMFF94_PARTIAL_CHARGES>
25
1 -0.56
10 0.31
11 0.7
12 0.4
13 -0.15
14 -0.15
15 -0.15
16 0.16
17 -0.15
18 0.42
19 -0.15
2 -0.56
20 0.06
21 0.28
22 0.28
24 0.15
25 0.15
26 0.15
27 0.15
28 0.15
29 0.15
3 -0.57
4 -0.62
5 -0.62
8 0.17

> <PUBCHEM_EFFECTIVE_ROTOR_COUNT>
4

> <PUBCHEM_PHARMACOPHORE_FEATURES>
8
1 1 acceptor
1 2 acceptor
1 3 acceptor
1 4 acceptor
1 5 acceptor
6 4 6 7 8 9 10 rings
6 5 6 7 12 13 16 rings
6 9 10 14 15 17 19 rings

> <PUBCHEM_HEAVY_ATOM_COUNT>
22

> <PUBCHEM_ATOM_DEF_STEREO_COUNT>
0

> <PUBCHEM_ATOM_UDEF_STEREO_COUNT>
0

> <PUBCHEM_BOND_DEF_STEREO_COUNT>
0

> <PUBCHEM_BOND_UDEF_STEREO_COUNT>
0

> <PUBCHEM_ISOTOPIC_ATOM_COUNT>
0

> <PUBCHEM_COMPONENT_COUNT>
1

> <PUBCHEM_CACTVS_TAUTO_COUNT>
2

> <PUBCHEM_CONFORMER_ID>
00A138E400000001

> <PUBCHEM_MMFF94_ENERGY>
98.2113

> <PUBCHEM_FEATURE_SELFOVERLAP>
40.708

> <PUBCHEM_SHAPE_FINGERPRINT>
10165383 225 18194984949671726524
10411042 1 17691687114146266638
10493431 412 18270408191356161832
10967382 1 18338514256826299286
1100329 8 17979361081631782083
11132069 177 18268421503120738794
12390115 104 18129119895357860120
12403814 3 18187649080667721225
13027679 85 18052818340991852279
13132413 78 17833551571585255612
13140716 1 18051412069799103258
13583140 156 16805597024208280064
138480 1 17330841214434404691
14081887 123 17912351328254861432
14142880 1 18413107234584032665
14178342 30 18127117577003074946
14223421 5 18264210222840715931
14614273 12 18335414621714743637
14790565 3 18410866468235583553
15042514 8 18265333005007977426
15309172 13 18338521824405811176
16752209 62 18338779174440125426
16945 1 18199194055869830058
18219364 16 18120373155551596960
19591789 44 18338803308278372354
20510252 161 18272370892794711728
20739085 24 18189922909774596321
20775438 99 15969296732896580703
21267235 1 18194127545239753578
21501502 16 18341046303076642106
2334 1 18267018354226912022
23402539 116 18270390710812802319
23419403 2 15890744293744490932
23493267 7 17676472974072542539
23559900 14 18126846234682877424
23566358 2 18196360425400325047
238 59 17396949415615934605
2748010 2 18122905322293178182
335352 9 18410853296061068774
34934 24 18191854841972732370
350125 39 18338801117760291666
352729 6 18267306611104767078
4340502 62 18057335998263961225
5104073 3 18411695475055335576
58807428 26 18338516314210554226
6992083 37 18262808504381339341
81228 2 18191301796166254216
9709674 26 18201163238884015534
9862522 239 18117822331735514448

> <PUBCHEM_SHAPE_MULTIPOLES>
425.18
6.55
3.62
1.1
4.57
1.03
0.21
-1.74
-0.77
-1.56
0.32
-1.13
-0.79
-0.43

> <PUBCHEM_SHAPE_SELFOVERLAP>
937.039

> <PUBCHEM_SHAPE_VOLUME>
227.7

> <PUBCHEM_COORDINATE_TYPE>
2
5
10

$$$$
