5319482
  -OEChem-02172602413D

 37 39  0     0  0  0  0  0  0999 V2000
    0.3414    0.4585    1.0032 O   0  0  0  0  0  0  0  0  0  0  0  0
   -4.7480   -1.1938   -0.3604 O   0  0  0  0  0  0  0  0  0  0  0  0
   -1.9672    3.0146   -1.1744 O   0  0  0  0  0  0  0  0  0  0  0  0
    2.2008    1.9920    1.0645 C   0  0  0  0  0  0  0  0  0  0  0  0
    3.2655    1.5476    0.0586 C   0  0  0  0  0  0  0  0  0  0  0  0
    0.8042    1.7043    0.6111 C   0  0  0  0  0  0  0  0  0  0  0  0
    3.2759    0.0586   -0.1887 C   0  0  0  0  0  0  0  0  0  0  0  0
   -1.7727    0.9159   -0.1037 C   0  0  0  0  0  0  0  0  0  0  0  0
   -0.9301    0.0913    0.6405 C   0  0  0  0  0  0  0  0  0  0  0  0
    0.0897    2.5845   -0.1053 C   0  0  0  0  0  0  0  0  0  0  0  0
   -1.2832    2.2389   -0.5214 C   0  0  0  0  0  0  0  0  0  0  0  0
   -3.0585    0.4897   -0.4443 C   0  0  0  0  0  0  0  0  0  0  0  0
   -1.3705   -1.1678    1.0494 C   0  0  0  0  0  0  0  0  0  0  0  0
    4.0716   -0.7559    0.6017 C   0  0  0  0  0  0  0  0  0  0  0  0
    2.4892   -0.4677   -1.2013 C   0  0  0  0  0  0  0  0  0  0  0  0
   -3.4962   -0.7701   -0.0338 C   0  0  0  0  0  0  0  0  0  0  0  0
   -2.6543   -1.5971    0.7113 C   0  0  0  0  0  0  0  0  0  0  0  0
    4.0811   -2.1320    0.3734 C   0  0  0  0  0  0  0  0  0  0  0  0
    2.4988   -1.8439   -1.4294 C   0  0  0  0  0  0  0  0  0  0  0  0
    3.2947   -2.6759   -0.6419 C   0  0  0  0  0  0  0  0  0  0  0  0
   -5.1324   -2.4915    0.0909 C   0  0  0  0  0  0  0  0  0  0  0  0
    2.3749    1.5128    2.0368 H   0  0  0  0  0  0  0  0  0  0  0  0
    2.3176    3.0694    1.2399 H   0  0  0  0  0  0  0  0  0  0  0  0
    3.1299    2.0755   -0.8950 H   0  0  0  0  0  0  0  0  0  0  0  0
    4.2533    1.8594    0.4225 H   0  0  0  0  0  0  0  0  0  0  0  0
    0.4834    3.5511   -0.3971 H   0  0  0  0  0  0  0  0  0  0  0  0
   -3.7235    1.1243   -1.0238 H   0  0  0  0  0  0  0  0  0  0  0  0
   -0.7203   -1.8176    1.6289 H   0  0  0  0  0  0  0  0  0  0  0  0
    4.6854   -0.3420    1.3965 H   0  0  0  0  0  0  0  0  0  0  0  0
    1.8698    0.1699   -1.8254 H   0  0  0  0  0  0  0  0  0  0  0  0
   -2.9332   -2.5856    1.0602 H   0  0  0  0  0  0  0  0  0  0  0  0
    4.7003   -2.7800    0.9869 H   0  0  0  0  0  0  0  0  0  0  0  0
    1.8868   -2.2674   -2.2204 H   0  0  0  0  0  0  0  0  0  0  0  0
    3.3019   -3.7474   -0.8195 H   0  0  0  0  0  0  0  0  0  0  0  0
   -4.5072   -3.2737   -0.3529 H   0  0  0  0  0  0  0  0  0  0  0  0
   -6.1557   -2.6647   -0.2578 H   0  0  0  0  0  0  0  0  0  0  0  0
   -5.1540   -2.5475    1.1847 H   0  0  0  0  0  0  0  0  0  0  0  0
  1  6  1  0  0  0  0
  1  9  1  0  0  0  0
  2 16  1  0  0  0  0
  2 21  1  0  0  0  0
  3 11  2  0  0  0  0
  4  5  1  0  0  0  0
  4  6  1  0  0  0  0
  4 22  1  0  0  0  0
  4 23  1  0  0  0  0
  5  7  1  0  0  0  0
  5 24  1  0  0  0  0
  5 25  1  0  0  0  0
  6 10  2  0  0  0  0
  7 14  2  0  0  0  0
  7 15  1  0  0  0  0
  8  9  2  0  0  0  0
  8 11  1  0  0  0  0
  8 12  1  0  0  0  0
  9 13  1  0  0  0  0
 10 11  1  0  0  0  0
 10 26  1  0  0  0  0
 12 16  2  0  0  0  0
 12 27  1  0  0  0  0
 13 17  2  0  0  0  0
 13 28  1  0  0  0  0
 14 18  1  0  0  0  0
 14 29  1  0  0  0  0
 15 19  2  0  0  0  0
 15 30  1  0  0  0  0
 16 17  1  0  0  0  0
 17 31  1  0  0  0  0
 18 20  2  0  0  0  0
 18 32  1  0  0  0  0
 19 20  1  0  0  0  0
 19 33  1  0  0  0  0
 20 34  1  0  0  0  0
 21 35  1  0  0  0  0
 21 36  1  0  0  0  0
 21 37  1  0  0  0  0
M  END
> <PUBCHEM_COMPOUND_CID>
5319482

> <PUBCHEM_CONFORMER_RMSD>
0.6

> <PUBCHEM_CONFORMER_DIVERSEORDER>
1
13
18
24
3
7
2
22
9
21
8
23
6
15
11
5
14
10
4
20
19
12
25
16
17

> <PUBCHEM_MMFF94_PARTIAL_CHARGES>
30
1 -0.16
10 -0.14
11 0.47
12 -0.15
13 -0.15
14 -0.15
15 -0.15
16 0.08
17 -0.15
18 -0.15
19 -0.15
2 -0.36
20 -0.15
21 0.28
26 0.15
27 0.15
28 0.15
29 0.15
3 -0.57
30 0.15
31 0.15
32 0.15
33 0.15
34 0.15
4 0.14
5 0.14
6 -0.06
7 -0.14
8 0.09
9 0.08

> <PUBCHEM_EFFECTIVE_ROTOR_COUNT>
4

> <PUBCHEM_PHARMACOPHORE_FEATURES>
6
1 1 acceptor
1 2 acceptor
1 3 acceptor
6 1 6 8 9 10 11 rings
6 7 14 15 18 19 20 rings
6 8 9 12 13 16 17 rings

> <PUBCHEM_HEAVY_ATOM_COUNT>
21

> <PUBCHEM_ATOM_DEF_STEREO_COUNT>
0

> <PUBCHEM_ATOM_UDEF_STEREO_COUNT>
0

> <PUBCHEM_BOND_DEF_STEREO_COUNT>
0

> <PUBCHEM_BOND_UDEF_STEREO_COUNT>
0

> <PUBCHEM_ISOTOPIC_ATOM_COUNT>
0

> <PUBCHEM_COMPONENT_COUNT>
1

> <PUBCHEM_CACTVS_TAUTO_COUNT>
3

> <PUBCHEM_CONFORMER_ID>
00512B3A00000001

> <PUBCHEM_MMFF94_ENERGY>
62.7276

> <PUBCHEM_FEATURE_SELFOVERLAP>
30.476

> <PUBCHEM_SHAPE_FINGERPRINT>
10366900 7 18336839670747519806
10693767 8 18268689762858496815
10764073 3 16893192748855270401
10906281 52 17898583221708054304
116883 192 18408603664768154189
12363563 72 18411709759425834890
12403259 226 18338514145125410166
12422481 6 18057630697697703051
12506688 2 18343588451464514056
12553582 1 18267045945186297634
128993 33 8140927553163249742
13533116 47 17987804154317810691
14341114 328 13326268378826040866
14790565 3 17618221702995998425
14848160 33 18343582936579163734
14866123 147 18052823542313325257
15352361 1 18411136926615567394
15635459 17 18339365265819931450
15664445 248 18042973257668203269
15848702 151 18341051921474049043
17492 89 18338233744086371398
1813 80 18041006184732992085
19141452 34 18270405988623247809
19591789 44 17905331728243551569
19930381 70 18411700967617678775
20626108 58 18042395851592841698
20645477 70 18340768255552321066
21279426 13 18335693902701787373
21285901 2 18261384602880434341
21315764 371 15769488841358338623
22224240 67 17699839928557371696
23184049 29 18337958870531527066
23557571 272 18113891688903023660
23559900 14 18408879616828359308
33824 294 18200031892752588256
38695281 34 17325217719291313237
4340502 62 17129297838476302160
463206 1 18198339761115966655
621550 34 18197485440628800592
7399639 24 18198043979788030408
81228 2 18187654599911881737
9709674 26 18409731716738104374

> <PUBCHEM_SHAPE_MULTIPOLES>
414.56
8.78
3.4
1.11
3.86
0.57
0.1
-7.3
0.35
-0.04
0.48
-0.37
-0.03
1.23

> <PUBCHEM_SHAPE_SELFOVERLAP>
904.162

> <PUBCHEM_SHAPE_VOLUME>
224.6

> <PUBCHEM_COORDINATE_TYPE>
2
5
10

$$$$
