5317512
  -OEChem-02172602383D

 80 83  0     1  0  0  0  0  0999 V2000
   -0.5722    1.9401    1.9951 O   0  0  0  0  0  0  0  0  0  0  0  0
    3.3962    2.2180   -1.9852 O   0  0  0  0  0  0  0  0  0  0  0  0
   -5.6481    2.9401   -0.6517 O   0  0  0  0  0  0  0  0  0  0  0  0
   -8.4628    1.2902    0.6380 O   0  0  0  0  0  0  0  0  0  0  0  0
   -0.2726   -1.3326    0.3106 C   0  0  1  0  0  0  0  0  0  0  0  0
    0.3551    0.0755    0.6124 C   0  0  1  0  0  0  0  0  0  0  0  0
   -1.7795   -0.9883    0.2316 C   0  0  2  0  0  0  0  0  0  0  0  0
   -0.5715    0.5393    1.7704 C   0  0  2  0  0  0  0  0  0  0  0  0
   -1.9814    0.0342    1.3767 C   0  0  0  0  0  0  0  0  0  0  0  0
    1.8534   -0.1004    0.8595 C   0  0  0  0  0  0  0  0  0  0  0  0
    4.1101   -1.0315   -0.0381 C   0  0  2  0  0  0  0  0  0  0  0  0
    0.3476   -1.8910   -0.9800 C   0  0  0  0  0  0  0  0  0  0  0  0
    2.5619   -0.9944   -0.0883 C   0  0  0  0  0  0  0  0  0  0  0  0
    4.7234    0.2185    0.7133 C   0  0  1  0  0  0  0  0  0  0  0  0
   -2.7569   -2.1550    0.3012 C   0  0  1  0  0  0  0  0  0  0  0  0
   -0.0315   -2.3798    1.4497 C   0  0  0  0  0  0  0  0  0  0  0  0
    0.2469    1.1050   -0.5591 C   0  0  0  0  0  0  0  0  0  0  0  0
    1.8561   -1.7817   -0.9377 C   0  0  0  0  0  0  0  0  0  0  0  0
    4.8845    1.5101   -0.1979 C   0  0  0  0  0  0  0  0  0  0  0  0
    3.9803    0.4325    2.0495 C   0  0  0  0  0  0  0  0  0  0  0  0
    2.5017    0.5123    1.8635 C   0  0  0  0  0  0  0  0  0  0  0  0
    4.7601   -1.0953   -1.4446 C   0  0  0  0  0  0  0  0  0  0  0  0
    4.5123   -2.3276    0.7140 C   0  0  0  0  0  0  0  0  0  0  0  0
   -4.2284   -1.7012    0.1885 C   0  0  0  0  0  0  0  0  0  0  0  0
    4.3866    0.0860   -2.3285 C   0  0  0  0  0  0  0  0  0  0  0  0
    4.1350    1.3433   -1.5280 C   0  0  0  0  0  0  0  0  0  0  0  0
   -2.4482   -3.1587   -0.8159 C   0  0  0  0  0  0  0  0  0  0  0  0
    6.3789    1.7144   -0.5495 C   0  0  0  0  0  0  0  0  0  0  0  0
    4.4274    2.8290    0.4623 C   0  0  0  0  0  0  0  0  0  0  0  0
   -4.5746   -0.9137   -1.0830 C   0  0  0  0  0  0  0  0  0  0  0  0
   -6.0023   -0.4429   -1.1014 C   0  0  0  0  0  0  0  0  0  0  0  0
   -6.5157    0.7055   -0.6177 C   0  0  0  0  0  0  0  0  0  0  0  0
   -5.6023    1.7058    0.0522 C   0  0  0  0  0  0  0  0  0  0  0  0
   -7.9697    1.0944   -0.6817 C   0  0  0  0  0  0  0  0  0  0  0  0
   -1.9367   -0.4668   -0.7190 H   0  0  0  0  0  0  0  0  0  0  0  0
   -0.2786    0.0719    2.7179 H   0  0  0  0  0  0  0  0  0  0  0  0
   -2.4558   -0.4198    2.2543 H   0  0  0  0  0  0  0  0  0  0  0  0
   -2.6210    0.8606    1.0546 H   0  0  0  0  0  0  0  0  0  0  0  0
    0.1270   -2.9523   -1.1131 H   0  0  0  0  0  0  0  0  0  0  0  0
   -0.0236   -1.3766   -1.8732 H   0  0  0  0  0  0  0  0  0  0  0  0
    5.7454   -0.0604    1.0125 H   0  0  0  0  0  0  0  0  0  0  0  0
   -2.6691   -2.6773    1.2617 H   0  0  0  0  0  0  0  0  0  0  0  0
    1.0264   -2.4881    1.7078 H   0  0  0  0  0  0  0  0  0  0  0  0
   -0.3739   -3.3790    1.1653 H   0  0  0  0  0  0  0  0  0  0  0  0
   -0.5535   -2.1201    2.3760 H   0  0  0  0  0  0  0  0  0  0  0  0
    0.7463    2.0456   -0.2933 H   0  0  0  0  0  0  0  0  0  0  0  0
   -0.7888    1.3633   -0.8002 H   0  0  0  0  0  0  0  0  0  0  0  0
    0.7161    0.7568   -1.4844 H   0  0  0  0  0  0  0  0  0  0  0  0
    2.3750   -2.4371   -1.6311 H   0  0  0  0  0  0  0  0  0  0  0  0
    4.1967   -0.3872    2.7454 H   0  0  0  0  0  0  0  0  0  0  0  0
    4.3423    1.3308    2.5581 H   0  0  0  0  0  0  0  0  0  0  0  0
    1.9747    1.1244    2.5852 H   0  0  0  0  0  0  0  0  0  0  0  0
    5.8517   -1.1307   -1.3325 H   0  0  0  0  0  0  0  0  0  0  0  0
    4.5121   -2.0261   -1.9695 H   0  0  0  0  0  0  0  0  0  0  0  0
    4.2127   -3.2227    0.1555 H   0  0  0  0  0  0  0  0  0  0  0  0
    4.0446   -2.3957    1.7020 H   0  0  0  0  0  0  0  0  0  0  0  0
    5.5979   -2.3831    0.8539 H   0  0  0  0  0  0  0  0  0  0  0  0
   -4.8803   -2.5832    0.2514 H   0  0  0  0  0  0  0  0  0  0  0  0
   -4.4785   -1.0926    1.0669 H   0  0  0  0  0  0  0  0  0  0  0  0
    3.4699   -0.1440   -2.8834 H   0  0  0  0  0  0  0  0  0  0  0  0
    5.1785    0.2819   -3.0587 H   0  0  0  0  0  0  0  0  0  0  0  0
    0.3436    2.2395    2.1063 H   0  0  0  0  0  0  0  0  0  0  0  0
   -1.6316   -3.8311   -0.5500 H   0  0  0  0  0  0  0  0  0  0  0  0
   -2.2300   -2.6710   -1.7712 H   0  0  0  0  0  0  0  0  0  0  0  0
   -3.3087   -3.8179   -0.9845 H   0  0  0  0  0  0  0  0  0  0  0  0
    6.9667    1.9320    0.3497 H   0  0  0  0  0  0  0  0  0  0  0  0
    6.5103    2.5510   -1.2464 H   0  0  0  0  0  0  0  0  0  0  0  0
    6.8225    0.8357   -1.0259 H   0  0  0  0  0  0  0  0  0  0  0  0
    4.9816    3.0363    1.3836 H   0  0  0  0  0  0  0  0  0  0  0  0
    3.3561    2.8282    0.6851 H   0  0  0  0  0  0  0  0  0  0  0  0
    4.5999    3.6838   -0.2043 H   0  0  0  0  0  0  0  0  0  0  0  0
   -3.9086   -0.0610   -1.2334 H   0  0  0  0  0  0  0  0  0  0  0  0
   -4.4261   -1.5515   -1.9630 H   0  0  0  0  0  0  0  0  0  0  0  0
   -6.6981   -1.1440   -1.5612 H   0  0  0  0  0  0  0  0  0  0  0  0
   -4.5588    1.4027    0.1170 H   0  0  0  0  0  0  0  0  0  0  0  0
   -5.9364    1.8900    1.0787 H   0  0  0  0  0  0  0  0  0  0  0  0
   -8.5790    0.3240   -1.1655 H   0  0  0  0  0  0  0  0  0  0  0  0
   -8.0998    2.0244   -1.2434 H   0  0  0  0  0  0  0  0  0  0  0  0
   -5.3075    2.7793   -1.5485 H   0  0  0  0  0  0  0  0  0  0  0  0
   -8.3751    0.4464    1.1138 H   0  0  0  0  0  0  0  0  0  0  0  0
  1  8  1  0  0  0  0
  1 62  1  0  0  0  0
  2 26  2  0  0  0  0
  3 33  1  0  0  0  0
  3 79  1  0  0  0  0
  4 34  1  0  0  0  0
  4 80  1  0  0  0  0
  5  6  1  0  0  0  0
  5  7  1  0  0  0  0
  5 12  1  0  0  0  0
  5 16  1  0  0  0  0
  6  8  1  0  0  0  0
  6 10  1  0  0  0  0
  6 17  1  0  0  0  0
  7  9  1  0  0  0  0
  7 15  1  0  0  0  0
  7 35  1  0  0  0  0
  8  9  1  0  0  0  0
  8 36  1  0  0  0  0
  9 37  1  0  0  0  0
  9 38  1  0  0  0  0
 10 13  1  0  0  0  0
 10 21  2  0  0  0  0
 11 13  1  0  0  0  0
 11 14  1  0  0  0  0
 11 22  1  0  0  0  0
 11 23  1  0  0  0  0
 12 18  1  0  0  0  0
 12 39  1  0  0  0  0
 12 40  1  0  0  0  0
 13 18  2  0  0  0  0
 14 19  1  0  0  0  0
 14 20  1  0  0  0  0
 14 41  1  0  0  0  0
 15 24  1  0  0  0  0
 15 27  1  0  0  0  0
 15 42  1  0  0  0  0
 16 43  1  0  0  0  0
 16 44  1  0  0  0  0
 16 45  1  0  0  0  0
 17 46  1  0  0  0  0
 17 47  1  0  0  0  0
 17 48  1  0  0  0  0
 18 49  1  0  0  0  0
 19 26  1  0  0  0  0
 19 28  1  0  0  0  0
 19 29  1  0  0  0  0
 20 21  1  0  0  0  0
 20 50  1  0  0  0  0
 20 51  1  0  0  0  0
 21 52  1  0  0  0  0
 22 25  1  0  0  0  0
 22 53  1  0  0  0  0
 22 54  1  0  0  0  0
 23 55  1  0  0  0  0
 23 56  1  0  0  0  0
 23 57  1  0  0  0  0
 24 30  1  0  0  0  0
 24 58  1  0  0  0  0
 24 59  1  0  0  0  0
 25 26  1  0  0  0  0
 25 60  1  0  0  0  0
 25 61  1  0  0  0  0
 27 63  1  0  0  0  0
 27 64  1  0  0  0  0
 27 65  1  0  0  0  0
 28 66  1  0  0  0  0
 28 67  1  0  0  0  0
 28 68  1  0  0  0  0
 29 69  1  0  0  0  0
 29 70  1  0  0  0  0
 29 71  1  0  0  0  0
 30 31  1  0  0  0  0
 30 72  1  0  0  0  0
 30 73  1  0  0  0  0
 31 32  2  0  0  0  0
 31 74  1  0  0  0  0
 32 33  1  0  0  0  0
 32 34  1  0  0  0  0
 33 75  1  0  0  0  0
 33 76  1  0  0  0  0
 34 77  1  0  0  0  0
 34 78  1  0  0  0  0
M  END
> <PUBCHEM_COMPOUND_CID>
5317512

> <PUBCHEM_CONFORMER_RMSD>
1

> <PUBCHEM_CONFORMER_DIVERSEORDER>
14
4
16
13
9
11
8
12
17
6
10
1
15
7
2
5
3

> <PUBCHEM_MMFF94_PARTIAL_CHARGES>
27
1 -0.68
10 -0.14
11 0.14
12 0.14
13 -0.14
18 -0.29
19 0.06
2 -0.57
20 0.14
21 -0.29
25 0.06
26 0.45
3 -0.68
30 0.14
31 -0.29
32 -0.28
33 0.42
34 0.42
4 -0.68
49 0.15
52 0.15
6 0.14
62 0.4
74 0.15
79 0.4
8 0.28
80 0.4

> <PUBCHEM_EFFECTIVE_ROTOR_COUNT>
7.6

> <PUBCHEM_PHARMACOPHORE_FEATURES>
14
1 1 acceptor
1 1 donor
1 2 acceptor
1 27 hydrophobe
1 3 acceptor
1 3 donor
1 4 acceptor
1 4 donor
3 19 28 29 hydrophobe
4 15 24 30 31 hydrophobe
5 5 6 7 8 9 rings
6 10 11 13 14 20 21 rings
6 11 14 19 22 25 26 rings
6 5 6 10 12 13 18 rings

> <PUBCHEM_HEAVY_ATOM_COUNT>
34

> <PUBCHEM_ATOM_DEF_STEREO_COUNT>
6

> <PUBCHEM_ATOM_UDEF_STEREO_COUNT>
1

> <PUBCHEM_BOND_DEF_STEREO_COUNT>
0

> <PUBCHEM_BOND_UDEF_STEREO_COUNT>
0

> <PUBCHEM_ISOTOPIC_ATOM_COUNT>
0

> <PUBCHEM_COMPONENT_COUNT>
1

> <PUBCHEM_CACTVS_TAUTO_COUNT>
2

> <PUBCHEM_CONFORMER_ID>
005123880000000E

> <PUBCHEM_MMFF94_ENERGY>
123.5618

> <PUBCHEM_FEATURE_SELFOVERLAP>
71.249

> <PUBCHEM_SHAPE_FINGERPRINT>
10 15 12685098089924898767
10675989 125 18410851058203785442
11578080 2 18198329848531933656
11646440 116 14273449288637919958
117089 54 8789791197522328856
13224815 77 18200325432572404474
13690498 29 17843118366936546623
13782708 43 9007064565168106079
14790565 3 18335700520913820927
15001296 14 18040997401430407261
15082195 135 18130511911449035848
15183329 4 17203328901715540859
15840311 113 17967814925518901807
17913733 40 14707200003483619185
18222031 100 15195288654790836514
1979834 28 14273450362501102242
20511986 3 18340199791029800502
20715895 44 18409448106951690278
21033648 29 18272075150126723371
21424621 283 18040996233225046067
22122407 14 17677341626797685733
22393880 68 17417520432400792783
23559900 14 17774450507074551146
23569914 152 16983794731586927565
249057 3 18334577906673349158
2838139 119 18336820914762365023
29717793 49 15410895158915923315
3004659 81 18412823556315544362
3633792 109 18410014321565793310
392239 28 14057012598775854655
439807 62 10807937072690713103
5104073 3 11819262356769590959
5283173 99 18413385419678714977
57527295 17 18269541909406584091
59682541 52 16988849362670311247
6086070 43 17632574993523650931

> <PUBCHEM_SHAPE_MULTIPOLES>
676.23
17.47
2.96
1.82
29.75
0.09
0.06
-10.59
-5.13
0.51
-0.25
-1.72
-0.31
-0.34

> <PUBCHEM_SHAPE_SELFOVERLAP>
1425.85

> <PUBCHEM_SHAPE_VOLUME>
378.1

> <PUBCHEM_COORDINATE_TYPE>
2
5
10

$$$$
