10183136
  -OEChem-02172602523D

 55 58  0     1  0  0  0  0  0999 V2000
   -1.2667    4.9062   -0.3070 Cl  0  0  0  0  0  0  0  0  0  0  0  0
    0.8346   -0.5223    2.1628 S   0  0  0  0  0  0  0  0  0  0  0  0
   -2.3821   -1.1511   -0.8407 O   0  0  0  0  0  0  0  0  0  0  0  0
    2.9369   -1.9503   -0.2116 O   0  0  0  0  0  0  0  0  0  0  0  0
   -5.1377   -1.2016    0.0048 O   0  0  0  0  0  0  0  0  0  0  0  0
    5.7583   -1.4319    1.9450 O   0  0  0  0  0  0  0  0  0  0  0  0
    5.1905    0.4806    0.8491 O   0  0  0  0  0  0  0  0  0  0  0  0
    1.8910   -0.0828   -1.1155 N   0  0  0  0  0  0  0  0  0  0  0  0
   -0.3429   -0.1434    0.8125 C   0  0  2  0  0  0  0  0  0  0  0  0
    0.0412    1.1182    0.0423 C   0  0  0  0  0  0  0  0  0  0  0  0
    2.4106   -0.1776    1.3224 C   0  0  2  0  0  0  0  0  0  0  0  0
    1.0703    1.0798   -0.9346 C   0  0  0  0  0  0  0  0  0  0  0  0
    2.2140   -0.4710   -2.4875 C   0  0  0  0  0  0  0  0  0  0  0  0
    1.1649   -1.4125   -3.0895 C   0  0  0  0  0  0  0  0  0  0  0  0
    2.4217   -0.8393   -0.0559 C   0  0  0  0  0  0  0  0  0  0  0  0
   -1.8020   -0.2358    1.2552 C   0  0  0  0  0  0  0  0  0  0  0  0
    3.5451   -0.7101    2.1968 C   0  0  0  0  0  0  0  0  0  0  0  0
   -0.6506    2.3293    0.2335 C   0  0  0  0  0  0  0  0  0  0  0  0
    1.2909    2.2033   -1.7524 C   0  0  0  0  0  0  0  0  0  0  0  0
   -2.7870   -0.7266    0.3979 C   0  0  0  0  0  0  0  0  0  0  0  0
   -0.1978   -0.7200   -3.1326 C   0  0  0  0  0  0  0  0  0  0  0  0
    1.0611   -2.7201   -2.3012 C   0  0  0  0  0  0  0  0  0  0  0  0
   -2.1485    0.1916    2.5372 C   0  0  0  0  0  0  0  0  0  0  0  0
   -4.1210   -0.7616    0.8116 C   0  0  0  0  0  0  0  0  0  0  0  0
   -0.3890    3.4472   -0.5596 C   0  0  0  0  0  0  0  0  0  0  0  0
    0.5683    3.3790   -1.5625 C   0  0  0  0  0  0  0  0  0  0  0  0
   -3.4768    0.1312    2.9600 C   0  0  0  0  0  0  0  0  0  0  0  0
   -4.4645   -0.3467    2.0985 C   0  0  0  0  0  0  0  0  0  0  0  0
    4.8910   -0.4541    1.5766 C   0  0  0  0  0  0  0  0  0  0  0  0
   -3.3846   -1.9390   -1.4884 C   0  0  0  0  0  0  0  0  0  0  0  0
   -4.7392   -1.2684   -1.3671 C   0  0  0  0  0  0  0  0  0  0  0  0
   -0.2138   -0.9965    0.1395 H   0  0  0  0  0  0  0  0  0  0  0  0
    2.5422    0.9055    1.2248 H   0  0  0  0  0  0  0  0  0  0  0  0
    3.1816   -0.9901   -2.4765 H   0  0  0  0  0  0  0  0  0  0  0  0
    2.3640    0.3843   -3.1486 H   0  0  0  0  0  0  0  0  0  0  0  0
    1.4688   -1.6525   -4.1158 H   0  0  0  0  0  0  0  0  0  0  0  0
    3.5466   -0.2267    3.1812 H   0  0  0  0  0  0  0  0  0  0  0  0
    3.4347   -1.7921    2.3489 H   0  0  0  0  0  0  0  0  0  0  0  0
   -1.4210    2.4073    0.9960 H   0  0  0  0  0  0  0  0  0  0  0  0
    2.0778    2.2325   -2.4993 H   0  0  0  0  0  0  0  0  0  0  0  0
   -0.5992   -0.5153   -2.1489 H   0  0  0  0  0  0  0  0  0  0  0  0
   -0.1398    0.2217   -3.6886 H   0  0  0  0  0  0  0  0  0  0  0  0
   -0.9219   -1.3554   -3.6543 H   0  0  0  0  0  0  0  0  0  0  0  0
    0.6513   -2.5828   -1.2977 H   0  0  0  0  0  0  0  0  0  0  0  0
    2.0333   -3.2178   -2.2324 H   0  0  0  0  0  0  0  0  0  0  0  0
    0.3869   -3.4108   -2.8213 H   0  0  0  0  0  0  0  0  0  0  0  0
   -1.4239    0.6121    3.2278 H   0  0  0  0  0  0  0  0  0  0  0  0
    0.7817    4.2405   -2.1900 H   0  0  0  0  0  0  0  0  0  0  0  0
   -3.7449    0.4695    3.9567 H   0  0  0  0  0  0  0  0  0  0  0  0
   -5.4980   -0.3801    2.4321 H   0  0  0  0  0  0  0  0  0  0  0  0
   -3.3871   -2.9398   -1.0392 H   0  0  0  0  0  0  0  0  0  0  0  0
   -3.1041   -2.0386   -2.5412 H   0  0  0  0  0  0  0  0  0  0  0  0
   -4.7244   -0.2512   -1.7776 H   0  0  0  0  0  0  0  0  0  0  0  0
   -5.4980   -1.8439   -1.9065 H   0  0  0  0  0  0  0  0  0  0  0  0
    6.6488   -1.2959    1.5567 H   0  0  0  0  0  0  0  0  0  0  0  0
  1 25  1  0  0  0  0
  2  9  1  0  0  0  0
  2 11  1  0  0  0  0
  3 20  1  0  0  0  0
  3 30  1  0  0  0  0
  4 15  2  0  0  0  0
  5 24  1  0  0  0  0
  5 31  1  0  0  0  0
  6 29  1  0  0  0  0
  6 55  1  0  0  0  0
  7 29  2  0  0  0  0
  8 12  1  0  0  0  0
  8 13  1  0  0  0  0
  8 15  1  0  0  0  0
  9 10  1  0  0  0  0
  9 16  1  0  0  0  0
  9 32  1  0  0  0  0
 10 12  2  0  0  0  0
 10 18  1  0  0  0  0
 11 15  1  0  0  0  0
 11 17  1  0  0  0  0
 11 33  1  0  0  0  0
 12 19  1  0  0  0  0
 13 14  1  0  0  0  0
 13 34  1  0  0  0  0
 13 35  1  0  0  0  0
 14 21  1  0  0  0  0
 14 22  1  0  0  0  0
 14 36  1  0  0  0  0
 16 20  2  0  0  0  0
 16 23  1  0  0  0  0
 17 29  1  0  0  0  0
 17 37  1  0  0  0  0
 17 38  1  0  0  0  0
 18 25  2  0  0  0  0
 18 39  1  0  0  0  0
 19 26  2  0  0  0  0
 19 40  1  0  0  0  0
 20 24  1  0  0  0  0
 21 41  1  0  0  0  0
 21 42  1  0  0  0  0
 21 43  1  0  0  0  0
 22 44  1  0  0  0  0
 22 45  1  0  0  0  0
 22 46  1  0  0  0  0
 23 27  2  0  0  0  0
 23 47  1  0  0  0  0
 24 28  2  0  0  0  0
 25 26  1  0  0  0  0
 26 48  1  0  0  0  0
 27 28  1  0  0  0  0
 27 49  1  0  0  0  0
 28 50  1  0  0  0  0
 30 31  1  0  0  0  0
 30 51  1  0  0  0  0
 30 52  1  0  0  0  0
 31 53  1  0  0  0  0
 31 54  1  0  0  0  0
M  END
> <PUBCHEM_COMPOUND_CID>
10183136

> <PUBCHEM_CONFORMER_RMSD>
0.8

> <PUBCHEM_CONFORMER_DIVERSEORDER>
1
24
7
25
28
29
22
14
33
32
20
26
6
17
18
8
35
15
30
34
31
27
21
4
19
10
16
23
2
3
13
5
12
11
9

> <PUBCHEM_MMFF94_PARTIAL_CHARGES>
35
1 -0.18
10 -0.14
11 0.29
12 0.12
13 0.3
15 0.57
16 -0.14
17 0.06
18 -0.15
19 -0.15
2 -0.46
20 0.08
23 -0.15
24 0.08
25 0.18
26 -0.15
27 -0.15
28 -0.15
29 0.66
3 -0.36
30 0.28
31 0.28
39 0.15
4 -0.57
40 0.15
47 0.15
48 0.15
49 0.15
5 -0.36
50 0.15
55 0.5
6 -0.65
7 -0.57
8 -0.48
9 0.52

> <PUBCHEM_EFFECTIVE_ROTOR_COUNT>
6.6

> <PUBCHEM_PHARMACOPHORE_FEATURES>
11
1 3 acceptor
1 4 acceptor
1 5 acceptor
1 6 acceptor
1 7 acceptor
3 14 21 22 hydrophobe
3 6 7 29 anion
6 10 12 18 19 25 26 rings
6 16 20 23 24 27 28 rings
6 3 5 20 24 30 31 rings
7 2 8 9 10 11 12 15 rings

> <PUBCHEM_HEAVY_ATOM_COUNT>
31

> <PUBCHEM_ATOM_DEF_STEREO_COUNT>
0

> <PUBCHEM_ATOM_UDEF_STEREO_COUNT>
2

> <PUBCHEM_BOND_DEF_STEREO_COUNT>
0

> <PUBCHEM_BOND_UDEF_STEREO_COUNT>
0

> <PUBCHEM_ISOTOPIC_ATOM_COUNT>
0

> <PUBCHEM_COMPONENT_COUNT>
1

> <PUBCHEM_CACTVS_TAUTO_COUNT>
1

> <PUBCHEM_CONFORMER_ID>
009B61E000000001

> <PUBCHEM_MMFF94_ENERGY>
112.2125

> <PUBCHEM_FEATURE_SELFOVERLAP>
55.934

> <PUBCHEM_SHAPE_FINGERPRINT>
11115154 58 18044346441245034501
11445158 3 17345451843346996224
11578080 2 17629778780920218520
11828532 37 18040987498010704999
12156800 1 17827937130069459669
12160290 23 17829066324480611525
12422481 6 18202004283326433372
12553582 1 18263103091982992443
12597179 24 17699267885588374596
12788726 201 18115323193071231440
13134695 92 17968371355031485244
133893 2 18047479103927193369
13583140 156 16199317460397929897
13692114 37 17763756386590741025
13911987 19 17749114417496476346
14068700 675 17822278081619003874
14178342 30 17489316321122444751
14840074 17 18340769359791666684
15238133 3 17677344801316373489
17980427 23 18130509754953044337
1813 80 18410867550687934153
19315092 285 17974844283765667851
20600515 1 18338243751000592202
20691752 17 18269854067539609911
21033648 29 17701841894550057809
23175994 123 17676482856676148921
23419403 2 17315045944481361876
23559900 14 16414382020632186841
238 59 17763205913184127901
3027735 51 16011532951869278882
3380486 77 18335701667364465323
394222 165 17765435735312575453
469060 322 17767640089081341046
513202 73 18265606577497947386
57527293 21 18271807878738566554
57527585 103 13799241627912885459
59444896 2 17482257615359941900
59755656 520 16773784906290832810
7471813 234 18187359956359355840

> <PUBCHEM_SHAPE_MULTIPOLES>
609.36
8.55
3.54
3.43
0.39
6.09
-0.66
-5.84
5.45
-0.58
-2.13
0.61
-1.63
-1.06

> <PUBCHEM_SHAPE_SELFOVERLAP>
1293.575

> <PUBCHEM_SHAPE_VOLUME>
340.9

> <PUBCHEM_COORDINATE_TYPE>
2
5
10

$$$$
