11435490
  -OEChem-02172602313D

 32 33  0     1  0  0  0  0  0999 V2000
   -2.0036    0.1691   -0.0985 O   0  0  0  0  0  0  0  0  0  0  0  0
   -4.0547   -0.7578    0.4221 O   0  0  0  0  0  0  0  0  0  0  0  0
    1.8433    0.9710   -0.0669 C   0  0  0  0  0  0  0  0  0  0  0  0
    2.7720   -0.2801    0.0556 C   0  0  1  0  0  0  0  0  0  0  0  0
    0.8659    0.1479    0.8405 C   0  0  2  0  0  0  0  0  0  0  0  0
    2.1754   -0.4121    1.4941 C   0  0  0  0  0  0  0  0  0  0  0  0
    2.3564   -1.4321   -0.8762 C   0  0  0  0  0  0  0  0  0  0  0  0
    0.1198   -0.9026    0.0683 C   0  0  0  0  0  0  0  0  0  0  0  0
    2.3701    2.2820    0.4817 C   0  0  0  0  0  0  0  0  0  0  0  0
    1.3214    1.2278   -1.4732 C   0  0  0  0  0  0  0  0  0  0  0  0
    0.8670   -1.6574   -0.7591 C   0  0  0  0  0  0  0  0  0  0  0  0
   -1.3521   -1.0394    0.2583 C   0  0  0  0  0  0  0  0  0  0  0  0
   -3.3664    0.1752    0.0314 C   0  0  0  0  0  0  0  0  0  0  0  0
   -3.9146    1.5086   -0.3781 C   0  0  0  0  0  0  0  0  0  0  0  0
    3.8476   -0.0799    0.0195 H   0  0  0  0  0  0  0  0  0  0  0  0
    0.2301    0.7327    1.5125 H   0  0  0  0  0  0  0  0  0  0  0  0
    2.6319    0.2207    2.2625 H   0  0  0  0  0  0  0  0  0  0  0  0
    2.1230   -1.4272    1.9027 H   0  0  0  0  0  0  0  0  0  0  0  0
    2.8816   -2.3492   -0.5869 H   0  0  0  0  0  0  0  0  0  0  0  0
    2.6291   -1.2118   -1.9138 H   0  0  0  0  0  0  0  0  0  0  0  0
    2.7695    2.1990    1.4964 H   0  0  0  0  0  0  0  0  0  0  0  0
    3.1797    2.6730   -0.1451 H   0  0  0  0  0  0  0  0  0  0  0  0
    1.5786    3.0394    0.5155 H   0  0  0  0  0  0  0  0  0  0  0  0
    0.9049    0.3906   -2.0320 H   0  0  0  0  0  0  0  0  0  0  0  0
    0.5298    1.9875   -1.4470 H   0  0  0  0  0  0  0  0  0  0  0  0
    2.1245    1.6305   -2.1035 H   0  0  0  0  0  0  0  0  0  0  0  0
    0.4177   -2.4421   -1.3590 H   0  0  0  0  0  0  0  0  0  0  0  0
   -1.5577   -1.2699    1.3107 H   0  0  0  0  0  0  0  0  0  0  0  0
   -1.7465   -1.8578   -0.3565 H   0  0  0  0  0  0  0  0  0  0  0  0
   -3.6687    1.7042   -1.4248 H   0  0  0  0  0  0  0  0  0  0  0  0
   -3.5053    2.2906    0.2663 H   0  0  0  0  0  0  0  0  0  0  0  0
   -5.0031    1.5022   -0.2707 H   0  0  0  0  0  0  0  0  0  0  0  0
  1 12  1  0  0  0  0
  1 13  1  0  0  0  0
  2 13  2  0  0  0  0
  3  4  1  0  0  0  0
  3  5  1  0  0  0  0
  3  9  1  0  0  0  0
  3 10  1  0  0  0  0
  4  6  1  0  0  0  0
  4  7  1  0  0  0  0
  4 15  1  0  0  0  0
  5  6  1  0  0  0  0
  5  8  1  0  0  0  0
  5 16  1  0  0  0  0
  6 17  1  0  0  0  0
  6 18  1  0  0  0  0
  7 11  1  0  0  0  0
  7 19  1  0  0  0  0
  7 20  1  0  0  0  0
  8 11  2  0  0  0  0
  8 12  1  0  0  0  0
  9 21  1  0  0  0  0
  9 22  1  0  0  0  0
  9 23  1  0  0  0  0
 10 24  1  0  0  0  0
 10 25  1  0  0  0  0
 10 26  1  0  0  0  0
 11 27  1  0  0  0  0
 12 28  1  0  0  0  0
 12 29  1  0  0  0  0
 13 14  1  0  0  0  0
 14 30  1  0  0  0  0
 14 31  1  0  0  0  0
 14 32  1  0  0  0  0
M  END
> <PUBCHEM_COMPOUND_CID>
11435490

> <PUBCHEM_CONFORMER_RMSD>
0.6

> <PUBCHEM_CONFORMER_DIVERSEORDER>
1
3
18
12
19
4
5
23
24
16
6
8
2
21
22
9
14
7
13
20
10
11
17
15

> <PUBCHEM_MMFF94_PARTIAL_CHARGES>
10
1 -0.43
11 -0.29
12 0.42
13 0.66
14 0.06
2 -0.57
27 0.15
5 0.12
7 0.14
8 -0.25

> <PUBCHEM_EFFECTIVE_ROTOR_COUNT>
3.6

> <PUBCHEM_PHARMACOPHORE_FEATURES>
3
1 2 acceptor
3 3 9 10 hydrophobe
7 3 4 5 6 7 8 11 rings

> <PUBCHEM_HEAVY_ATOM_COUNT>
14

> <PUBCHEM_ATOM_DEF_STEREO_COUNT>
2

> <PUBCHEM_ATOM_UDEF_STEREO_COUNT>
0

> <PUBCHEM_BOND_DEF_STEREO_COUNT>
0

> <PUBCHEM_BOND_UDEF_STEREO_COUNT>
0

> <PUBCHEM_ISOTOPIC_ATOM_COUNT>
0

> <PUBCHEM_COMPONENT_COUNT>
1

> <PUBCHEM_CACTVS_TAUTO_COUNT>
1

> <PUBCHEM_CONFORMER_ID>
00AE7DE200000001

> <PUBCHEM_MMFF94_ENERGY>
39.4154

> <PUBCHEM_FEATURE_SELFOVERLAP>
15.223

> <PUBCHEM_SHAPE_FINGERPRINT>
10608611 8 18410573994210988121
11031198 65 17988648527180716495
11086676 242 17823125744706751840
12654215 9 18341328873232862604
12725867 57 18129383709449609238
12932764 1 17240481386506473015
13134695 92 17059765603593461296
13380536 305 18342464759255380942
13922767 16 18410567358022272705
14344429 50 18260547818628478402
14648413 74 18338242660184575306
15775835 57 18269556207309715353
16945 1 18339909464236210598
17041 50 18267026063603024623
18186145 218 18130515136963784275
20233049 118 18335422327049784732
21524375 3 18122621927460590568
21730867 7 18272652333395826839
22892500 29 17417513740435284248
230 275 17989485216732135379
23402655 69 18131348566730081341
23419403 2 17338968890834715330
3060560 45 18130221541230922151
5939293 188 18334852814175754397
7364860 26 18343305889924393800

> <PUBCHEM_SHAPE_MULTIPOLES>
276.37
6.05
1.89
1.13
8.45
0.61
0.03
1.29
-0.24
-0.79
0.27
-0.71
0.03
0.47

> <PUBCHEM_SHAPE_SELFOVERLAP>
574.925

> <PUBCHEM_SHAPE_VOLUME>
159.7

> <PUBCHEM_COORDINATE_TYPE>
2
5
10

$$$$
