5281351
  -OEChem-02172602383D

 51 55  0     1  0  0  0  0  0999 V2000
   -3.9764   -0.0781   -0.3497 O   0  0  0  0  0  0  0  0  0  0  0  0
   -3.2924    2.1439   -0.1222 O   0  0  0  0  0  0  0  0  0  0  0  0
    3.0329   -0.1585    1.3556 N   0  0  2  0  0  0  0  0  0  0  0  0
   -1.2159    1.1121    0.1275 N   0  0  0  0  0  0  0  0  0  0  0  0
    0.6717   -0.2128    0.9248 C   0  0  2  0  0  0  0  0  0  0  0  0
    2.0179   -0.8432    0.5157 C   0  0  1  0  0  0  0  0  0  0  0  0
    0.2812    1.1225    0.1919 C   0  0  1  0  0  0  0  0  0  0  0  0
    0.9144    0.0485    2.4166 C   0  0  0  0  0  0  0  0  0  0  0  0
    2.3025    0.7325   -1.3772 C   0  0  2  0  0  0  0  0  0  0  0  0
    0.8658    1.2549   -1.2380 C   0  0  0  0  0  0  0  0  0  0  0  0
    2.2678   -0.7081   -0.9580 C   0  0  0  0  0  0  0  0  0  0  0  0
    2.3453    0.5648    2.4331 C   0  0  0  0  0  0  0  0  0  0  0  0
   -0.5705   -1.0344    0.7044 C   0  0  0  0  0  0  0  0  0  0  0  0
    3.3003    1.5260   -0.5025 C   0  0  0  0  0  0  0  0  0  0  0  0
    3.9653    0.6814    0.5977 C   0  0  0  0  0  0  0  0  0  0  0  0
   -1.6411   -0.2288    0.2964 C   0  0  0  0  0  0  0  0  0  0  0  0
    2.4383   -1.7412   -1.7932 C   0  0  0  0  0  0  0  0  0  0  0  0
   -0.7496   -2.3943    0.9268 C   0  0  0  0  0  0  0  0  0  0  0  0
   -2.0618    2.1952   -0.0759 C   0  0  0  0  0  0  0  0  0  0  0  0
   -2.9065   -0.7710    0.1148 C   0  0  0  0  0  0  0  0  0  0  0  0
   -2.0153   -2.9469    0.7324 C   0  0  0  0  0  0  0  0  0  0  0  0
   -3.0863   -2.1400    0.3314 C   0  0  0  0  0  0  0  0  0  0  0  0
    2.6864   -1.5973   -3.2559 C   0  0  0  0  0  0  0  0  0  0  0  0
   -1.3907    3.5382   -0.2330 C   0  0  0  0  0  0  0  0  0  0  0  0
   -4.1834   -0.0654   -1.7633 C   0  0  0  0  0  0  0  0  0  0  0  0
    2.0480   -1.9011    0.8048 H   0  0  0  0  0  0  0  0  0  0  0  0
    0.5949    1.9952    0.7733 H   0  0  0  0  0  0  0  0  0  0  0  0
    0.8462   -0.8807    2.9978 H   0  0  0  0  0  0  0  0  0  0  0  0
    0.2129    0.7662    2.8557 H   0  0  0  0  0  0  0  0  0  0  0  0
    2.6066    0.8665   -2.4200 H   0  0  0  0  0  0  0  0  0  0  0  0
    0.8382    2.3045   -1.5508 H   0  0  0  0  0  0  0  0  0  0  0  0
    0.2236    0.7191   -1.9518 H   0  0  0  0  0  0  0  0  0  0  0  0
    2.3463    1.6491    2.2695 H   0  0  0  0  0  0  0  0  0  0  0  0
    2.8256    0.3751    3.3982 H   0  0  0  0  0  0  0  0  0  0  0  0
    2.8179    2.4039   -0.0563 H   0  0  0  0  0  0  0  0  0  0  0  0
    4.0941    1.9246   -1.1477 H   0  0  0  0  0  0  0  0  0  0  0  0
    4.7080    0.0218    0.1290 H   0  0  0  0  0  0  0  0  0  0  0  0
    4.5439    1.3270    1.2701 H   0  0  0  0  0  0  0  0  0  0  0  0
    2.4136   -2.7542   -1.4000 H   0  0  0  0  0  0  0  0  0  0  0  0
    0.0671   -3.0241    1.2625 H   0  0  0  0  0  0  0  0  0  0  0  0
   -2.1734   -4.0086    0.8998 H   0  0  0  0  0  0  0  0  0  0  0  0
   -4.0623   -2.5952    0.1800 H   0  0  0  0  0  0  0  0  0  0  0  0
    2.1233   -0.7764   -3.7081 H   0  0  0  0  0  0  0  0  0  0  0  0
    2.3622   -2.5105   -3.7671 H   0  0  0  0  0  0  0  0  0  0  0  0
    3.7542   -1.4662   -3.4539 H   0  0  0  0  0  0  0  0  0  0  0  0
   -0.6702    3.7204    0.5664 H   0  0  0  0  0  0  0  0  0  0  0  0
   -2.1491    4.3260   -0.1770 H   0  0  0  0  0  0  0  0  0  0  0  0
   -0.9083    3.6042   -1.2097 H   0  0  0  0  0  0  0  0  0  0  0  0
   -3.2835    0.2710   -2.2884 H   0  0  0  0  0  0  0  0  0  0  0  0
   -4.9998    0.6276   -1.9844 H   0  0  0  0  0  0  0  0  0  0  0  0
   -4.4682   -1.0629   -2.1123 H   0  0  0  0  0  0  0  0  0  0  0  0
  1 20  1  0  0  0  0
  1 25  1  0  0  0  0
  2 19  2  0  0  0  0
  3  6  1  0  0  0  0
  3 12  1  0  0  0  0
  3 15  1  0  0  0  0
  4  7  1  0  0  0  0
  4 16  1  0  0  0  0
  4 19  1  0  0  0  0
  5  6  1  0  0  0  0
  5  7  1  0  0  0  0
  5  8  1  0  0  0  0
  5 13  1  0  0  0  0
  6 11  1  0  0  0  0
  6 26  1  0  0  0  0
  7 10  1  0  0  0  0
  7 27  1  0  0  0  0
  8 12  1  0  0  0  0
  8 28  1  0  0  0  0
  8 29  1  0  0  0  0
  9 10  1  0  0  0  0
  9 11  1  0  0  0  0
  9 14  1  0  0  0  0
  9 30  1  0  0  0  0
 10 31  1  0  0  0  0
 10 32  1  0  0  0  0
 11 17  2  0  0  0  0
 12 33  1  0  0  0  0
 12 34  1  0  0  0  0
 13 16  2  0  0  0  0
 13 18  1  0  0  0  0
 14 15  1  0  0  0  0
 14 35  1  0  0  0  0
 14 36  1  0  0  0  0
 15 37  1  0  0  0  0
 15 38  1  0  0  0  0
 16 20  1  0  0  0  0
 17 23  1  0  0  0  0
 17 39  1  0  0  0  0
 18 21  2  0  0  0  0
 18 40  1  0  0  0  0
 19 24  1  0  0  0  0
 20 22  2  0  0  0  0
 21 22  1  0  0  0  0
 21 41  1  0  0  0  0
 22 42  1  0  0  0  0
 23 43  1  0  0  0  0
 23 44  1  0  0  0  0
 23 45  1  0  0  0  0
 24 46  1  0  0  0  0
 24 47  1  0  0  0  0
 24 48  1  0  0  0  0
 25 49  1  0  0  0  0
 25 50  1  0  0  0  0
 25 51  1  0  0  0  0
M  END
> <PUBCHEM_COMPOUND_CID>
5281351

> <PUBCHEM_CONFORMER_RMSD>
0.6

> <PUBCHEM_CONFORMER_DIVERSEORDER>
1
2

> <PUBCHEM_MMFF94_PARTIAL_CHARGES>
26
1 -0.36
11 -0.28
12 0.27
13 -0.14
15 0.27
16 0.12
17 -0.29
18 -0.15
19 0.57
2 -0.57
20 0.08
21 -0.15
22 -0.15
23 0.14
24 0.06
25 0.28
3 -0.81
39 0.15
4 -0.48
40 0.15
41 0.15
42 0.15
5 0.14
6 0.41
7 0.3
9 0.14

> <PUBCHEM_EFFECTIVE_ROTOR_COUNT>
3.2

> <PUBCHEM_PHARMACOPHORE_FEATURES>
9
1 1 acceptor
1 2 acceptor
1 23 hydrophobe
1 3 cation
5 3 5 6 8 12 rings
5 4 5 7 13 16 rings
6 13 16 18 20 21 22 rings
6 3 6 9 11 14 15 rings
6 5 6 7 9 10 11 rings

> <PUBCHEM_HEAVY_ATOM_COUNT>
25

> <PUBCHEM_ATOM_DEF_STEREO_COUNT>
4

> <PUBCHEM_ATOM_UDEF_STEREO_COUNT>
0

> <PUBCHEM_BOND_DEF_STEREO_COUNT>
1

> <PUBCHEM_BOND_UDEF_STEREO_COUNT>
0

> <PUBCHEM_ISOTOPIC_ATOM_COUNT>
0

> <PUBCHEM_COMPONENT_COUNT>
1

> <PUBCHEM_CACTVS_TAUTO_COUNT>
1

> <PUBCHEM_CONFORMER_ID>
0050964700000001

> <PUBCHEM_MMFF94_ENERGY>
105.5533

> <PUBCHEM_FEATURE_SELFOVERLAP>
47.758

> <PUBCHEM_SHAPE_FINGERPRINT>
10366900 7 17988919011214661136
10498660 4 18334292093652575219
10863032 1 18407755941782673786
10906281 52 18340488975378180289
11578080 2 17773062841527232088
11582403 64 16617507903255386624
11640471 11 17167866374047807814
12156800 1 13888382329141056616
12236239 1 17385711513516205370
12553582 1 18265340684445607299
12788726 201 18409448085772720333
13140716 1 18189332536623587667
13224815 77 18041002851558743593
13538477 17 17968084361021715131
13965767 371 17462554005922870548
14022347 108 18261971707798558515
14790565 3 18336270051064056177
15238133 3 13335285395959133750
15324884 4 17770210875673040978
15664445 248 17978251648149276829
16752209 62 18261664888330558145
16945 1 18261126178687148514
17349148 13 18189595229323216511
17492 54 16968033709138775374
17980427 23 17977356628589125284
20600515 1 18335690659131410840
20691752 17 18115873996909406511
20715895 44 17172893200178089453
20905425 154 17539693920692428741
21285901 2 18272933830237706271
21756936 100 16445922628777551236
22112679 90 17749105561041510792
22149856 69 17833543498214011541
23402539 116 18336252548369886582
23419403 2 11368422263922607872
23526113 38 17989210304634530874
23557571 272 18412268371250933600
23559900 14 18410852179506520322
238 59 17632571673551062086
2748010 2 18049153660278402931
298252 57 17465134581382490088
350125 39 17903912267300129529
474 4 14996562962020707798
484985 159 16193716449165669903
5262128 65 18118714185730942892
81228 2 18341898480792132193
9709674 26 18342747294798733814
9981440 41 16740311605791083008

> <PUBCHEM_SHAPE_MULTIPOLES>
492.79
6.38
2.92
2.21
2.03
0.79
0.61
-0.1
1.78
2.07
0.35
-2.12
-0.84
1.37

> <PUBCHEM_SHAPE_SELFOVERLAP>
1092.009

> <PUBCHEM_SHAPE_VOLUME>
262.9

> <PUBCHEM_COORDINATE_TYPE>
2
5
10

$$$$
