197017
  -OEChem-02172602333D

 40 43  0     1  0  0  0  0  0999 V2000
    1.7531   -2.4905    0.0777 O   0  0  0  0  0  0  0  0  0  0  0  0
   -0.3655   -4.1389    0.0905 O   0  0  0  0  0  0  0  0  0  0  0  0
   -2.6135    1.8637   -0.3089 N   0  0  1  0  0  0  0  0  0  0  0  0
   -1.2518    1.4855    0.1510 C   0  0  1  0  0  0  0  0  0  0  0  0
   -1.0039   -0.0261    0.1066 C   0  0  0  0  0  0  0  0  0  0  0  0
   -0.1570    2.1933   -0.6791 C   0  0  0  0  0  0  0  0  0  0  0  0
   -2.0926   -0.9199    0.0833 C   0  0  0  0  0  0  0  0  0  0  0  0
   -3.6220    1.0580    0.3980 C   0  0  0  0  0  0  0  0  0  0  0  0
   -3.5029   -0.4078   -0.0085 C   0  0  0  0  0  0  0  0  0  0  0  0
    0.3265   -0.5153    0.1540 C   0  0  0  0  0  0  0  0  0  0  0  0
    1.2277    1.7756   -0.2370 C   0  0  0  0  0  0  0  0  0  0  0  0
    1.4553    0.4433    0.1706 C   0  0  0  0  0  0  0  0  0  0  0  0
    0.5182   -1.9088    0.1490 C   0  0  0  0  0  0  0  0  0  0  0  0
   -1.8622   -2.2989    0.0769 C   0  0  0  0  0  0  0  0  0  0  0  0
   -2.8988    3.2856   -0.0889 C   0  0  0  0  0  0  0  0  0  0  0  0
   -0.5630   -2.7898    0.1129 C   0  0  0  0  0  0  0  0  0  0  0  0
    2.2803    2.7032   -0.2750 C   0  0  0  0  0  0  0  0  0  0  0  0
    2.7564    0.0972    0.5771 C   0  0  0  0  0  0  0  0  0  0  0  0
    3.5606    2.3305    0.1213 C   0  0  0  0  0  0  0  0  0  0  0  0
    3.7969    1.0304    0.5526 C   0  0  0  0  0  0  0  0  0  0  0  0
    2.2583   -2.7704   -1.2241 C   0  0  0  0  0  0  0  0  0  0  0  0
   -1.1396    1.7776    1.2068 H   0  0  0  0  0  0  0  0  0  0  0  0
   -0.2405    3.2798   -0.5669 H   0  0  0  0  0  0  0  0  0  0  0  0
   -0.2628    1.9597   -1.7469 H   0  0  0  0  0  0  0  0  0  0  0  0
   -4.6348    1.3933    0.1411 H   0  0  0  0  0  0  0  0  0  0  0  0
   -3.5136    1.1640    1.4862 H   0  0  0  0  0  0  0  0  0  0  0  0
   -3.8460   -0.5320   -1.0436 H   0  0  0  0  0  0  0  0  0  0  0  0
   -4.1599   -1.0058    0.6345 H   0  0  0  0  0  0  0  0  0  0  0  0
   -2.7056   -2.9845    0.0362 H   0  0  0  0  0  0  0  0  0  0  0  0
   -2.2718    3.9223   -0.7196 H   0  0  0  0  0  0  0  0  0  0  0  0
   -2.7597    3.5784    0.9579 H   0  0  0  0  0  0  0  0  0  0  0  0
   -3.9312    3.5202   -0.3739 H   0  0  0  0  0  0  0  0  0  0  0  0
    2.1039    3.7225   -0.6089 H   0  0  0  0  0  0  0  0  0  0  0  0
    3.0060   -0.8764    0.9830 H   0  0  0  0  0  0  0  0  0  0  0  0
    4.3702    3.0536    0.0997 H   0  0  0  0  0  0  0  0  0  0  0  0
    4.7910    0.7407    0.8815 H   0  0  0  0  0  0  0  0  0  0  0  0
   -1.2280   -4.5872    0.0602 H   0  0  0  0  0  0  0  0  0  0  0  0
    1.6922   -3.5825   -1.6904 H   0  0  0  0  0  0  0  0  0  0  0  0
    3.3003   -3.0873   -1.1252 H   0  0  0  0  0  0  0  0  0  0  0  0
    2.2249   -1.8808   -1.8615 H   0  0  0  0  0  0  0  0  0  0  0  0
  1 13  1  0  0  0  0
  1 21  1  0  0  0  0
  2 16  1  0  0  0  0
  2 37  1  0  0  0  0
  3  4  1  0  0  0  0
  3  8  1  0  0  0  0
  3 15  1  0  0  0  0
  4  5  1  0  0  0  0
  4  6  1  0  0  0  0
  4 22  1  0  0  0  0
  5  7  1  0  0  0  0
  5 10  2  0  0  0  0
  6 11  1  0  0  0  0
  6 23  1  0  0  0  0
  6 24  1  0  0  0  0
  7  9  1  0  0  0  0
  7 14  2  0  0  0  0
  8  9  1  0  0  0  0
  8 25  1  0  0  0  0
  8 26  1  0  0  0  0
  9 27  1  0  0  0  0
  9 28  1  0  0  0  0
 10 12  1  0  0  0  0
 10 13  1  0  0  0  0
 11 12  1  0  0  0  0
 11 17  2  0  0  0  0
 12 18  2  0  0  0  0
 13 16  2  0  0  0  0
 14 16  1  0  0  0  0
 14 29  1  0  0  0  0
 15 30  1  0  0  0  0
 15 31  1  0  0  0  0
 15 32  1  0  0  0  0
 17 19  1  0  0  0  0
 17 33  1  0  0  0  0
 18 20  1  0  0  0  0
 18 34  1  0  0  0  0
 19 20  2  0  0  0  0
 19 35  1  0  0  0  0
 20 36  1  0  0  0  0
 21 38  1  0  0  0  0
 21 39  1  0  0  0  0
 21 40  1  0  0  0  0
M  END
> <PUBCHEM_COMPOUND_CID>
197017

> <PUBCHEM_CONFORMER_RMSD>
0.6

> <PUBCHEM_CONFORMER_DIVERSEORDER>
1
2

> <PUBCHEM_MMFF94_PARTIAL_CHARGES>
25
1 -0.36
11 -0.14
13 0.08
14 -0.15
15 0.27
16 0.08
17 -0.15
18 -0.15
19 -0.15
2 -0.53
20 -0.15
21 0.28
29 0.15
3 -0.81
33 0.15
34 0.15
35 0.15
36 0.15
37 0.45
4 0.41
5 -0.14
6 0.14
7 -0.14
8 0.27
9 0.14

> <PUBCHEM_EFFECTIVE_ROTOR_COUNT>
1.8

> <PUBCHEM_PHARMACOPHORE_FEATURES>
7
1 1 acceptor
1 2 donor
1 3 cation
6 11 12 17 18 19 20 rings
6 3 4 5 7 8 9 rings
6 4 5 6 10 11 12 rings
6 5 7 10 13 14 16 rings

> <PUBCHEM_HEAVY_ATOM_COUNT>
21

> <PUBCHEM_ATOM_DEF_STEREO_COUNT>
1

> <PUBCHEM_ATOM_UDEF_STEREO_COUNT>
0

> <PUBCHEM_BOND_DEF_STEREO_COUNT>
0

> <PUBCHEM_BOND_UDEF_STEREO_COUNT>
0

> <PUBCHEM_ISOTOPIC_ATOM_COUNT>
0

> <PUBCHEM_COMPONENT_COUNT>
1

> <PUBCHEM_CACTVS_TAUTO_COUNT>
9

> <PUBCHEM_CONFORMER_ID>
0003019900000001

> <PUBCHEM_MMFF94_ENERGY>
77.18

> <PUBCHEM_FEATURE_SELFOVERLAP>
35.608

> <PUBCHEM_SHAPE_FINGERPRINT>
10319926 262 17910653682988105640
10411042 1 17257371276684291306
10616163 171 18193559097774938626
10967382 1 18410011060973140873
1100329 8 17978793410992103843
11370993 70 18410845564629565593
11680986 33 18337961065049000673
12035758 1 18194965141403571930
12173636 292 18339636870856632196
12553582 1 16897649584867879022
13140716 1 17977103779516318547
13583140 156 16950826098829757201
138480 1 17689995635496056835
14081887 123 17406823455404241880
14223421 5 18409735045226904633
14790565 3 17259922723629119944
15006816 218 18411419483965974876
15042514 8 18048316931439249810
15442244 35 18263636432948859480
15475509 8 16549479864777712349
16110190 28 18191840411568271770
16945 1 18338240465255664501
19591789 44 18337675187714941806
20510252 161 18198909303801898625
20905425 154 18342181080612404983
21267235 1 17830741215886314162
22182313 1 18262241015185718957
2334 1 18337953385373071315
23402539 116 18055065734264239087
23419403 2 16666527348625868150
23559900 14 18127414664962067672
238 59 17684604871729789181
2748010 2 18264491693622400263
3091708 16 9337648124409759121
335352 9 18410009931813473724
34934 24 16970262423761765228
350125 39 18338526239695261049
352729 6 18265617778118111917
54173680 148 17905045103088622448
5939293 188 17906729198488804355
6438718 38 17771917296392205791
7097593 13 18043223852478415442
7364860 26 18268994193590540836
7832392 63 17907574731884495505
90525 40 18194402431630533054
9709674 26 18411420596383778943

> <PUBCHEM_SHAPE_MULTIPOLES>
415.45
5.62
4.6
0.76
1.14
2.21
0.08
-3.4
-0.57
-0.73
0.66
0.23
0.12
0.37

> <PUBCHEM_SHAPE_SELFOVERLAP>
922.435

> <PUBCHEM_SHAPE_VOLUME>
221.5

> <PUBCHEM_COORDINATE_TYPE>
2
5
10

$$$$
