440584
  -OEChem-02172602293D

 43 45  0     1  0  0  0  0  0999 V2000
    5.2362    0.7862    0.4453 O   0  0  0  0  0  0  0  0  0  0  0  0
    3.4345    2.7953   -0.2085 O   0  0  0  0  0  0  0  0  0  0  0  0
   -6.4835    0.9574   -0.4850 O   0  0  0  0  0  0  0  0  0  0  0  0
   -0.5919   -1.8518   -0.4651 N   0  0  2  0  0  0  0  0  0  0  0  0
   -0.2778   -0.4191   -0.2680 C   0  0  2  0  0  0  0  0  0  0  0  0
    1.2004   -0.1132   -0.0886 C   0  0  0  0  0  0  0  0  0  0  0  0
    0.1502   -2.7078    0.4687 C   0  0  0  0  0  0  0  0  0  0  0  0
    1.6698   -2.5605    0.3637 C   0  0  0  0  0  0  0  0  0  0  0  0
    2.1146   -1.1260    0.2521 C   0  0  0  0  0  0  0  0  0  0  0  0
   -1.0853    0.1179    0.9247 C   0  0  0  0  0  0  0  0  0  0  0  0
   -0.4104   -2.2676   -1.8563 C   0  0  0  0  0  0  0  0  0  0  0  0
    1.6634    1.2039   -0.2392 C   0  0  0  0  0  0  0  0  0  0  0  0
    3.4697   -0.8094    0.4247 C   0  0  0  0  0  0  0  0  0  0  0  0
   -2.5194    0.3409    0.5498 C   0  0  0  0  0  0  0  0  0  0  0  0
    3.0119    1.5093   -0.0571 C   0  0  0  0  0  0  0  0  0  0  0  0
    3.9144    0.5033    0.2752 C   0  0  0  0  0  0  0  0  0  0  0  0
   -2.9171    1.5751    0.0465 C   0  0  0  0  0  0  0  0  0  0  0  0
   -3.4416   -0.6883    0.7092 C   0  0  0  0  0  0  0  0  0  0  0  0
   -4.2519    1.7825   -0.3015 C   0  0  0  0  0  0  0  0  0  0  0  0
   -4.7764   -0.4809    0.3611 C   0  0  0  0  0  0  0  0  0  0  0  0
   -5.1815    0.7544   -0.1442 C   0  0  0  0  0  0  0  0  0  0  0  0
    6.0718    0.6982   -0.7075 C   0  0  0  0  0  0  0  0  0  0  0  0
   -0.5996    0.1251   -1.1685 H   0  0  0  0  0  0  0  0  0  0  0  0
   -0.1266   -3.7591    0.3185 H   0  0  0  0  0  0  0  0  0  0  0  0
   -0.1607   -2.4840    1.4962 H   0  0  0  0  0  0  0  0  0  0  0  0
    2.0346   -3.1027   -0.5175 H   0  0  0  0  0  0  0  0  0  0  0  0
    2.1288   -3.0214    1.2467 H   0  0  0  0  0  0  0  0  0  0  0  0
   -0.6768    1.0772    1.2723 H   0  0  0  0  0  0  0  0  0  0  0  0
   -1.0200   -0.5282    1.8088 H   0  0  0  0  0  0  0  0  0  0  0  0
    0.6119   -2.1215   -2.2203 H   0  0  0  0  0  0  0  0  0  0  0  0
   -1.0863   -1.7054   -2.5105 H   0  0  0  0  0  0  0  0  0  0  0  0
   -0.6719   -3.3245   -1.9792 H   0  0  0  0  0  0  0  0  0  0  0  0
    0.9660    1.9973   -0.4998 H   0  0  0  0  0  0  0  0  0  0  0  0
    4.1815   -1.5940    0.6722 H   0  0  0  0  0  0  0  0  0  0  0  0
   -2.2015    2.3824   -0.0830 H   0  0  0  0  0  0  0  0  0  0  0  0
   -3.1407   -1.6537    1.1065 H   0  0  0  0  0  0  0  0  0  0  0  0
   -4.5545    2.7492   -0.6949 H   0  0  0  0  0  0  0  0  0  0  0  0
   -5.4961   -1.2852    0.4868 H   0  0  0  0  0  0  0  0  0  0  0  0
    4.3858    2.8340   -0.0094 H   0  0  0  0  0  0  0  0  0  0  0  0
    7.0854    0.9899   -0.4188 H   0  0  0  0  0  0  0  0  0  0  0  0
    5.7231    1.3759   -1.4932 H   0  0  0  0  0  0  0  0  0  0  0  0
    6.0970   -0.3297   -1.0827 H   0  0  0  0  0  0  0  0  0  0  0  0
   -6.5846    1.8665   -0.8159 H   0  0  0  0  0  0  0  0  0  0  0  0
  1 16  1  0  0  0  0
  1 22  1  0  0  0  0
  2 15  1  0  0  0  0
  2 39  1  0  0  0  0
  3 21  1  0  0  0  0
  3 43  1  0  0  0  0
  4  5  1  0  0  0  0
  4  7  1  0  0  0  0
  4 11  1  0  0  0  0
  5  6  1  0  0  0  0
  5 10  1  0  0  0  0
  5 23  1  0  0  0  0
  6  9  1  0  0  0  0
  6 12  2  0  0  0  0
  7  8  1  0  0  0  0
  7 24  1  0  0  0  0
  7 25  1  0  0  0  0
  8  9  1  0  0  0  0
  8 26  1  0  0  0  0
  8 27  1  0  0  0  0
  9 13  2  0  0  0  0
 10 14  1  0  0  0  0
 10 28  1  0  0  0  0
 10 29  1  0  0  0  0
 11 30  1  0  0  0  0
 11 31  1  0  0  0  0
 11 32  1  0  0  0  0
 12 15  1  0  0  0  0
 12 33  1  0  0  0  0
 13 16  1  0  0  0  0
 13 34  1  0  0  0  0
 14 17  2  0  0  0  0
 14 18  1  0  0  0  0
 15 16  2  0  0  0  0
 17 19  1  0  0  0  0
 17 35  1  0  0  0  0
 18 20  2  0  0  0  0
 18 36  1  0  0  0  0
 19 21  2  0  0  0  0
 19 37  1  0  0  0  0
 20 21  1  0  0  0  0
 20 38  1  0  0  0  0
 22 40  1  0  0  0  0
 22 41  1  0  0  0  0
 22 42  1  0  0  0  0
M  END
> <PUBCHEM_COMPOUND_CID>
440584

> <PUBCHEM_CONFORMER_RMSD>
0.6

> <PUBCHEM_CONFORMER_DIVERSEORDER>
3
17
1
9
13
12
8
6
7
2
14
11
15
16
5
10
4

> <PUBCHEM_MMFF94_PARTIAL_CHARGES>
30
1 -0.36
10 0.14
11 0.27
12 -0.15
13 -0.15
14 -0.14
15 0.08
16 0.08
17 -0.15
18 -0.15
19 -0.15
2 -0.53
20 -0.15
21 0.08
22 0.28
3 -0.53
33 0.15
34 0.15
35 0.15
36 0.15
37 0.15
38 0.15
39 0.45
4 -0.81
43 0.45
5 0.41
6 -0.14
7 0.27
8 0.14
9 -0.14

> <PUBCHEM_EFFECTIVE_ROTOR_COUNT>
3.8

> <PUBCHEM_PHARMACOPHORE_FEATURES>
7
1 1 acceptor
1 2 donor
1 3 donor
1 4 cation
6 14 17 18 19 20 21 rings
6 4 5 6 7 8 9 rings
6 6 9 12 13 15 16 rings

> <PUBCHEM_HEAVY_ATOM_COUNT>
22

> <PUBCHEM_ATOM_DEF_STEREO_COUNT>
1

> <PUBCHEM_ATOM_UDEF_STEREO_COUNT>
0

> <PUBCHEM_BOND_DEF_STEREO_COUNT>
0

> <PUBCHEM_BOND_UDEF_STEREO_COUNT>
0

> <PUBCHEM_ISOTOPIC_ATOM_COUNT>
0

> <PUBCHEM_COMPONENT_COUNT>
1

> <PUBCHEM_CACTVS_TAUTO_COUNT>
6

> <PUBCHEM_CONFORMER_ID>
0006B90800000003

> <PUBCHEM_MMFF94_ENERGY>
73.0494

> <PUBCHEM_FEATURE_SELFOVERLAP>
35.542

> <PUBCHEM_SHAPE_FINGERPRINT>
10411042 1 17688587165708106026
11370993 70 18334012787629373491
12011746 2 18409174294544782148
12107183 9 17615121088446939073
12236239 1 17846214432375403369
12403259 327 16370723763946763016
12403259 415 18342458191912970544
12592029 89 18409450267093601450
12596602 18 14273750567883340725
12633257 1 16081091506037187748
13140716 1 18265326395395485848
13583140 156 18187372055482487779
13836976 161 18343301452906562263
14790565 3 18261402186798921180
15188451 53 15502951834782011777
15196674 1 18409167671135395651
15961568 22 18040720238178784469
1601671 61 18261114058833063452
17980427 23 17168435947252490551
18681886 176 18341889727543223000
200 152 18201434758179125537
20157964 124 18336260151084414805
20197701 30 18342173383988792710
20600515 1 15285654161229412279
20602899 9 16056607577073757694
20645477 70 18270680844876091679
21033648 29 18341040904350679096
21033650 10 14834752182663248968
21521239 73 17346601837687592270
21524375 3 18343306989114274778
21709351 56 18409163346203724501
23227448 37 18340206417805551374
23402539 116 18202559613733773005
23557571 272 17023467431122111485
23558518 356 17829044665318415690
23559900 14 18193552264556441203
314173 85 12901544624352997410
335352 9 18410013239613414452
350125 39 18407760348008084924
351380 180 18333731316762942161
3545911 37 18334296461687296729
4325135 7 18411697708528071007
4340502 62 17676490536278452715
474 4 18408605859432749345
474229 33 18342458175218280615
5104073 3 18188216373639765945
58051976 378 18341897368326653597
59755656 215 18410297982279703950
59755656 520 18412257354707766814
6669772 16 18059863835604772190
8272917 22 18337673005724083299
9709674 26 18265902363400419627
9999458 23 18333733498748824830

> <PUBCHEM_SHAPE_MULTIPOLES>
430.16
12.04
2.6
0.94
4.18
0.87
-0.26
-7.27
-0.68
-1.04
-0.34
0.09
0.41
-0.07

> <PUBCHEM_SHAPE_SELFOVERLAP>
926.153

> <PUBCHEM_SHAPE_VOLUME>
238.1

> <PUBCHEM_COORDINATE_TYPE>
2
5
10

$$$$
