5209498
  -OEChem-02172602293D

 45 50  0     1  0  0  0  0  0999 V2000
    4.7322   -1.2246    0.4034 O   0  0  0  0  0  0  0  0  0  0  0  0
    5.9950    0.8003    0.0889 O   0  0  0  0  0  0  0  0  0  0  0  0
   -4.7976    2.1820    0.2146 O   0  0  0  0  0  0  0  0  0  0  0  0
   -5.9993    0.1130   -0.0622 O   0  0  0  0  0  0  0  0  0  0  0  0
    0.3103   -1.3953   -0.1998 N   0  3  2  0  0  0  0  0  0  0  0  0
   -0.3590   -0.0955    0.3356 C   0  0  1  0  0  0  0  0  0  0  0  0
   -0.4344   -2.5931    0.4058 C   0  0  0  0  0  0  0  0  0  0  0  0
    1.7701   -1.4342    0.3084 C   0  0  0  0  0  0  0  0  0  0  0  0
    0.3849    1.1275   -0.2484 C   0  0  0  0  0  0  0  0  0  0  0  0
   -1.8759   -0.0726    0.1850 C   0  0  0  0  0  0  0  0  0  0  0  0
   -1.8890   -2.6202   -0.0441 C   0  0  0  0  0  0  0  0  0  0  0  0
    0.3107   -1.4965   -1.7335 C   0  0  0  0  0  0  0  0  0  0  0  0
    2.5437   -0.1682    0.0895 C   0  0  0  0  0  0  0  0  0  0  0  0
    1.8908    1.0542   -0.1457 C   0  0  0  0  0  0  0  0  0  0  0  0
   -2.5955   -1.2915    0.0532 C   0  0  0  0  0  0  0  0  0  0  0  0
   -2.5917    1.1370    0.2628 C   0  0  0  0  0  0  0  0  0  0  0  0
    3.9283   -0.1508    0.1609 C   0  0  0  0  0  0  0  0  0  0  0  0
   -3.9992   -1.2841   -0.0490 C   0  0  0  0  0  0  0  0  0  0  0  0
    2.6484    2.2327   -0.3379 C   0  0  0  0  0  0  0  0  0  0  0  0
   -3.9687    1.1032    0.1666 C   0  0  0  0  0  0  0  0  0  0  0  0
   -4.6539   -0.0743    0.0122 C   0  0  0  0  0  0  0  0  0  0  0  0
    4.6538    1.0053   -0.0167 C   0  0  0  0  0  0  0  0  0  0  0  0
    4.0429    2.2136   -0.2713 C   0  0  0  0  0  0  0  0  0  0  0  0
    6.0371   -0.6149    0.3562 C   0  0  0  0  0  0  0  0  0  0  0  0
   -6.0838    1.5468    0.0654 C   0  0  0  0  0  0  0  0  0  0  0  0
   -0.1730   -0.1157    1.4204 H   0  0  0  0  0  0  0  0  0  0  0  0
   -0.3707   -2.4955    1.4969 H   0  0  0  0  0  0  0  0  0  0  0  0
    0.0914   -3.5067    0.1052 H   0  0  0  0  0  0  0  0  0  0  0  0
    2.2497   -2.2837   -0.1924 H   0  0  0  0  0  0  0  0  0  0  0  0
    1.7290   -1.6353    1.3860 H   0  0  0  0  0  0  0  0  0  0  0  0
    0.0694    2.0274    0.2938 H   0  0  0  0  0  0  0  0  0  0  0  0
    0.1108    1.2764   -1.3006 H   0  0  0  0  0  0  0  0  0  0  0  0
   -2.4192   -3.3580    0.5711 H   0  0  0  0  0  0  0  0  0  0  0  0
   -1.9531   -2.9711   -1.0813 H   0  0  0  0  0  0  0  0  0  0  0  0
   -0.6930   -1.2913   -2.1117 H   0  0  0  0  0  0  0  0  0  0  0  0
    1.0139   -0.7707   -2.1481 H   0  0  0  0  0  0  0  0  0  0  0  0
    0.6258   -2.5080   -2.0066 H   0  0  0  0  0  0  0  0  0  0  0  0
   -2.0940    2.0897    0.4030 H   0  0  0  0  0  0  0  0  0  0  0  0
   -4.5553   -2.2082   -0.1717 H   0  0  0  0  0  0  0  0  0  0  0  0
    2.1429    3.1747   -0.5393 H   0  0  0  0  0  0  0  0  0  0  0  0
    4.6182    3.1211   -0.4145 H   0  0  0  0  0  0  0  0  0  0  0  0
    6.6247   -1.1035   -0.4294 H   0  0  0  0  0  0  0  0  0  0  0  0
    6.5350   -0.7759    1.3193 H   0  0  0  0  0  0  0  0  0  0  0  0
   -6.5735    1.9508   -0.8282 H   0  0  0  0  0  0  0  0  0  0  0  0
   -6.6972    1.7860    0.9417 H   0  0  0  0  0  0  0  0  0  0  0  0
  1 17  1  0  0  0  0
  1 24  1  0  0  0  0
  2 22  1  0  0  0  0
  2 24  1  0  0  0  0
  3 20  1  0  0  0  0
  3 25  1  0  0  0  0
  4 21  1  0  0  0  0
  4 25  1  0  0  0  0
  5  6  1  0  0  0  0
  5  7  1  0  0  0  0
  5  8  1  0  0  0  0
  5 12  1  0  0  0  0
  6  9  1  0  0  0  0
  6 10  1  0  0  0  0
  6 26  1  0  0  0  0
  7 11  1  0  0  0  0
  7 27  1  0  0  0  0
  7 28  1  0  0  0  0
  8 13  1  0  0  0  0
  8 29  1  0  0  0  0
  8 30  1  0  0  0  0
  9 14  1  0  0  0  0
  9 31  1  0  0  0  0
  9 32  1  0  0  0  0
 10 15  1  0  0  0  0
 10 16  2  0  0  0  0
 11 15  1  0  0  0  0
 11 33  1  0  0  0  0
 11 34  1  0  0  0  0
 12 35  1  0  0  0  0
 12 36  1  0  0  0  0
 12 37  1  0  0  0  0
 13 14  2  0  0  0  0
 13 17  1  0  0  0  0
 14 19  1  0  0  0  0
 15 18  2  0  0  0  0
 16 20  1  0  0  0  0
 16 38  1  0  0  0  0
 17 22  2  0  0  0  0
 18 21  1  0  0  0  0
 18 39  1  0  0  0  0
 19 23  2  0  0  0  0
 19 40  1  0  0  0  0
 20 21  2  0  0  0  0
 22 23  1  0  0  0  0
 23 41  1  0  0  0  0
 24 42  1  0  0  0  0
 24 43  1  0  0  0  0
 25 44  1  0  0  0  0
 25 45  1  0  0  0  0
M  CHG  1   5   1
M  END
> <PUBCHEM_COMPOUND_CID>
5209498

> <PUBCHEM_CONFORMER_RMSD>
0.6

> <PUBCHEM_CONFORMER_DIVERSEORDER>
1
3
4
2
5
6

> <PUBCHEM_MMFF94_PARTIAL_CHARGES>
29
1 -0.36
10 -0.14
11 0.14
12 0.5
13 -0.14
14 -0.14
15 -0.14
16 -0.15
17 0.08
18 -0.15
19 -0.15
2 -0.36
20 0.08
21 0.08
22 0.08
23 -0.15
24 0.56
25 0.56
3 -0.36
38 0.15
39 0.15
4 -0.36
40 0.15
41 0.15
5 -1.01
6 0.65
7 0.5
8 0.65
9 0.14

> <PUBCHEM_EFFECTIVE_ROTOR_COUNT>
2

> <PUBCHEM_PHARMACOPHORE_FEATURES>
11
1 1 acceptor
1 2 acceptor
1 3 acceptor
1 4 acceptor
1 5 cation
5 1 2 17 22 24 rings
5 3 4 20 21 25 rings
6 10 15 16 18 20 21 rings
6 13 14 17 19 22 23 rings
6 5 6 7 10 11 15 rings
6 5 6 8 9 13 14 rings

> <PUBCHEM_HEAVY_ATOM_COUNT>
25

> <PUBCHEM_ATOM_DEF_STEREO_COUNT>
0

> <PUBCHEM_ATOM_UDEF_STEREO_COUNT>
2

> <PUBCHEM_BOND_DEF_STEREO_COUNT>
0

> <PUBCHEM_BOND_UDEF_STEREO_COUNT>
0

> <PUBCHEM_ISOTOPIC_ATOM_COUNT>
0

> <PUBCHEM_COMPONENT_COUNT>
1

> <PUBCHEM_CACTVS_TAUTO_COUNT>
1

> <PUBCHEM_CONFORMER_ID>
004F7D9A00000001

> <PUBCHEM_MMFF94_ENERGY>
79.3856

> <PUBCHEM_FEATURE_SELFOVERLAP>
56.188

> <PUBCHEM_SHAPE_FINGERPRINT>
10411042 1 17762900275001919991
10906281 52 18199487539828457353
12107183 9 18335976459688756714
12236239 1 18412261753043920928
12633257 1 18333725810582908184
12788726 201 17845940627957420960
12838862 33 18337653261685778409
13140716 1 18337105778441839888
13402501 40 18411136922442023357
13533116 47 17703791371663210242
13583140 156 17749399169411577081
13785724 45 17833547904106288866
14251764 18 18333728040151099736
14341114 176 18335425668344157576
14790565 3 18408889533396123349
15099037 51 18410293610002879382
15183329 4 18410011030918912776
15196674 1 18409730706977593738
15238133 3 18261399957641608276
15537594 2 10665233661123003529
15788980 27 18334016115854227960
1601671 61 18411981347535328328
16087824 20 18336547105955001476
17349148 13 18202566189507921108
1813 80 16588020234485999884
18608769 82 18339927117185053651
18681886 176 18272643575830864704
19141452 34 18335419097318546790
19611394 137 17969236697623195203
20511986 3 18341880922912779656
20715895 44 18339924810075471849
21033648 144 18263913492177249676
21236236 1 18340485664380303783
21267235 1 18336835267973596235
21279426 13 18339927004661082318
21315764 268 18335696178407317285
21421861 104 17822839893802081970
21709351 56 18410567392777851773
21859007 373 17969759939560486100
23227448 37 18340487858870923215
23402539 116 18343015610285773661
23558518 356 17898858117047763202
23559900 14 18343017835300534992
23569917 315 18412831283015087767
2838139 119 18341607118763724253
3004659 81 18407762530526386152
335352 9 18409449172546658950
34797466 226 17274548723205815644
34934 24 18410007767424295434
350125 39 18408603647435356156
351380 180 18410855477308043976
3545911 37 18411983555000819009
3680242 22 18335421206079073722
38695281 34 18273495646056595359
4017518 198 17489875925987914566
404807 14 16692758350449260486
4073 2 17968100888752131146
4214541 1 18409730689871752985
4325135 7 18343578552250601767
474 4 18409731733960152267
5104073 3 18261951959464942600
513202 73 16589415402982949834
559249 180 18410853265790523626
56616090 46 18408890624323175975
57724786 102 17313674857402160964
59755656 215 18342463595387653430
59755656 520 18334289881665835879
6138700 20 18338519630173420854
6328613 192 18261682570895935292
633830 44 17604427521928142434
7226269 152 18131635577487289248
9981440 41 18408327692140643371
9999458 23 17894914031652749454

> <PUBCHEM_SHAPE_MULTIPOLES>
486.03
13.54
2.55
0.77
0.09
0.35
-0.22
-5.52
1.21
0.6
-0.09
-0.11
0.2
-0.48

> <PUBCHEM_SHAPE_SELFOVERLAP>
1102.448

> <PUBCHEM_SHAPE_VOLUME>
253.2

> <PUBCHEM_COORDINATE_TYPE>
2
5
10

$$$$
