5340632
  -OEChem-02172602503D

 58 59  0     1  0  0  0  0  0999 V2000
    5.8021   -3.1410    0.3634 Br  0  0  0  0  0  0  0  0  0  0  0  0
    2.9777    1.5393   -1.0811 O   0  0  0  0  0  0  0  0  0  0  0  0
    3.0227    1.0750    1.1780 O   0  0  0  0  0  0  0  0  0  0  0  0
    0.0892   -0.2103   -1.6804 O   0  0  0  0  0  0  0  0  0  0  0  0
   -2.5261    0.8293   -0.7988 O   0  0  0  0  0  0  0  0  0  0  0  0
    0.1976    0.6885    0.4523 N   0  0  0  0  0  0  0  0  0  0  0  0
   -2.3397   -1.2879    0.1453 N   0  0  0  0  0  0  0  0  0  0  0  0
    1.5219    4.3031    0.7365 C   0  0  0  0  0  0  0  0  0  0  0  0
    0.7374    3.0192    1.0739 C   0  0  0  0  0  0  0  0  0  0  0  0
    0.9755    1.8515    0.1131 C   0  0  1  0  0  0  0  0  0  0  0  0
    1.2350    5.4371    1.7217 C   0  0  0  0  0  0  0  0  0  0  0  0
    1.1819    4.7576   -0.6857 C   0  0  0  0  0  0  0  0  0  0  0  0
    2.4296    1.4241    0.1654 C   0  0  0  0  0  0  0  0  0  0  0  0
   -0.1875   -0.2604   -0.4838 C   0  0  0  0  0  0  0  0  0  0  0  0
   -0.9780   -1.3975    0.0900 C   0  0  0  0  0  0  0  0  0  0  0  0
    4.3687    1.2160   -1.1753 C   0  0  0  0  0  0  0  0  0  0  0  0
   -0.2931   -2.4707    0.5231 C   0  0  0  0  0  0  0  0  0  0  0  0
    1.1677   -2.6312    0.4848 C   0  0  0  0  0  0  0  0  0  0  0  0
    4.8199    1.3927   -2.6095 C   0  0  0  0  0  0  0  0  0  0  0  0
   -3.0331   -0.1750   -0.3051 C   0  0  0  0  0  0  0  0  0  0  0  0
   -4.5124   -0.2485   -0.1839 C   0  0  0  0  0  0  0  0  0  0  0  0
    1.7644   -3.1759   -0.6427 C   0  0  0  0  0  0  0  0  0  0  0  0
    1.9259   -2.2353    1.5768 C   0  0  0  0  0  0  0  0  0  0  0  0
    3.1504   -3.3284   -0.6791 C   0  0  0  0  0  0  0  0  0  0  0  0
    3.3120   -2.3877    1.5403 C   0  0  0  0  0  0  0  0  0  0  0  0
   -5.2289    0.9232   -0.0587 C   0  0  0  0  0  0  0  0  0  0  0  0
   -5.1207   -1.4862   -0.2008 C   0  0  0  0  0  0  0  0  0  0  0  0
    3.9243   -2.9344    0.4125 C   0  0  0  0  0  0  0  0  0  0  0  0
   -6.6175    0.8540    0.0549 C   0  0  0  0  0  0  0  0  0  0  0  0
   -6.5092   -1.5553   -0.0875 C   0  0  0  0  0  0  0  0  0  0  0  0
   -7.2576   -0.3851    0.0402 C   0  0  0  0  0  0  0  0  0  0  0  0
    2.5974    4.0927    0.7829 H   0  0  0  0  0  0  0  0  0  0  0  0
   -0.3374    3.2460    1.0934 H   0  0  0  0  0  0  0  0  0  0  0  0
    0.9939    2.7130    2.0973 H   0  0  0  0  0  0  0  0  0  0  0  0
    0.7053    2.1336   -0.9094 H   0  0  0  0  0  0  0  0  0  0  0  0
    1.4884    5.1332    2.7427 H   0  0  0  0  0  0  0  0  0  0  0  0
    0.1766    5.7184    1.7051 H   0  0  0  0  0  0  0  0  0  0  0  0
    1.8274    6.3257    1.4796 H   0  0  0  0  0  0  0  0  0  0  0  0
    0.1000    4.8521   -0.8286 H   0  0  0  0  0  0  0  0  0  0  0  0
    1.6323    5.7343   -0.8955 H   0  0  0  0  0  0  0  0  0  0  0  0
    1.5729    4.0676   -1.4389 H   0  0  0  0  0  0  0  0  0  0  0  0
   -0.0350    0.5365    1.4301 H   0  0  0  0  0  0  0  0  0  0  0  0
    4.5236    0.1772   -0.8640 H   0  0  0  0  0  0  0  0  0  0  0  0
    4.9430    1.8816   -0.5215 H   0  0  0  0  0  0  0  0  0  0  0  0
   -0.8277   -3.3174    0.9487 H   0  0  0  0  0  0  0  0  0  0  0  0
   -2.8305   -2.0649    0.5773 H   0  0  0  0  0  0  0  0  0  0  0  0
    4.6532    2.4227   -2.9416 H   0  0  0  0  0  0  0  0  0  0  0  0
    4.2415    0.7457   -3.2774 H   0  0  0  0  0  0  0  0  0  0  0  0
    5.8814    1.1535   -2.7177 H   0  0  0  0  0  0  0  0  0  0  0  0
    1.1727   -3.4867   -1.4998 H   0  0  0  0  0  0  0  0  0  0  0  0
    1.4612   -1.8069    2.4610 H   0  0  0  0  0  0  0  0  0  0  0  0
    3.6119   -3.7554   -1.5658 H   0  0  0  0  0  0  0  0  0  0  0  0
    3.9006   -2.0741    2.3986 H   0  0  0  0  0  0  0  0  0  0  0  0
   -4.7449    1.8951   -0.0405 H   0  0  0  0  0  0  0  0  0  0  0  0
   -4.5814   -2.4177   -0.3364 H   0  0  0  0  0  0  0  0  0  0  0  0
   -7.2003    1.7650    0.1553 H   0  0  0  0  0  0  0  0  0  0  0  0
   -7.0091   -2.5194   -0.1075 H   0  0  0  0  0  0  0  0  0  0  0  0
   -8.3390   -0.4388    0.1267 H   0  0  0  0  0  0  0  0  0  0  0  0
  1 28  1  0  0  0  0
  2 13  1  0  0  0  0
  2 16  1  0  0  0  0
  3 13  2  0  0  0  0
  4 14  2  0  0  0  0
  5 20  2  0  0  0  0
  6 10  1  0  0  0  0
  6 14  1  0  0  0  0
  6 42  1  0  0  0  0
  7 15  1  0  0  0  0
  7 20  1  0  0  0  0
  7 46  1  0  0  0  0
  8  9  1  0  0  0  0
  8 11  1  0  0  0  0
  8 12  1  0  0  0  0
  8 32  1  0  0  0  0
  9 10  1  0  0  0  0
  9 33  1  0  0  0  0
  9 34  1  0  0  0  0
 10 13  1  0  0  0  0
 10 35  1  0  0  0  0
 11 36  1  0  0  0  0
 11 37  1  0  0  0  0
 11 38  1  0  0  0  0
 12 39  1  0  0  0  0
 12 40  1  0  0  0  0
 12 41  1  0  0  0  0
 14 15  1  0  0  0  0
 15 17  2  0  0  0  0
 16 19  1  0  0  0  0
 16 43  1  0  0  0  0
 16 44  1  0  0  0  0
 17 18  1  0  0  0  0
 17 45  1  0  0  0  0
 18 22  2  0  0  0  0
 18 23  1  0  0  0  0
 19 47  1  0  0  0  0
 19 48  1  0  0  0  0
 19 49  1  0  0  0  0
 20 21  1  0  0  0  0
 21 26  2  0  0  0  0
 21 27  1  0  0  0  0
 22 24  1  0  0  0  0
 22 50  1  0  0  0  0
 23 25  2  0  0  0  0
 23 51  1  0  0  0  0
 24 28  2  0  0  0  0
 24 52  1  0  0  0  0
 25 28  1  0  0  0  0
 25 53  1  0  0  0  0
 26 29  1  0  0  0  0
 26 54  1  0  0  0  0
 27 30  2  0  0  0  0
 27 55  1  0  0  0  0
 29 31  2  0  0  0  0
 29 56  1  0  0  0  0
 30 31  1  0  0  0  0
 30 57  1  0  0  0  0
 31 58  1  0  0  0  0
M  END
> <PUBCHEM_COMPOUND_CID>
5340632

> <PUBCHEM_CONFORMER_RMSD>
1

> <PUBCHEM_CONFORMER_DIVERSEORDER>
1
17
65
4
25
50
60
36
28
61
40
46
5
26
74
15
33
37
71
73
81
27
32
30
68
66
53
76
41
54
8
75
13
56
12
49
31
78
82
51
2
59
79
43
20
77
21
9
19
62
14
69
47
70
39
11
48
10
55
7
38
35
45
23
22
63
67
64
3
44
80
58
57
6
29
72
18
34
52
24
42
16

> <PUBCHEM_MMFF94_PARTIAL_CHARGES>
38
1 -0.11
10 0.36
13 0.66
14 0.62
15 0.12
16 0.28
17 -0.18
18 0.03
2 -0.43
20 0.54
21 0.09
22 -0.15
23 -0.15
24 -0.15
25 -0.15
26 -0.15
27 -0.15
28 0.11
29 -0.15
3 -0.57
30 -0.15
31 -0.15
4 -0.57
42 0.37
45 0.15
46 0.37
5 -0.57
50 0.15
51 0.15
52 0.15
53 0.15
54 0.15
55 0.15
56 0.15
57 0.15
58 0.15
6 -0.73
7 -0.54

> <PUBCHEM_EFFECTIVE_ROTOR_COUNT>
12

> <PUBCHEM_PHARMACOPHORE_FEATURES>
9
1 1 hydrophobe
1 3 acceptor
1 4 acceptor
1 5 acceptor
1 6 donor
1 7 donor
3 8 11 12 hydrophobe
6 18 22 23 24 25 28 rings
6 21 26 27 29 30 31 rings

> <PUBCHEM_HEAVY_ATOM_COUNT>
31

> <PUBCHEM_ATOM_DEF_STEREO_COUNT>
0

> <PUBCHEM_ATOM_UDEF_STEREO_COUNT>
1

> <PUBCHEM_BOND_DEF_STEREO_COUNT>
1

> <PUBCHEM_BOND_UDEF_STEREO_COUNT>
0

> <PUBCHEM_ISOTOPIC_ATOM_COUNT>
0

> <PUBCHEM_COMPONENT_COUNT>
1

> <PUBCHEM_CACTVS_TAUTO_COUNT>
4

> <PUBCHEM_CONFORMER_ID>
00517DD800000001

> <PUBCHEM_MMFF94_ENERGY>
81.4171

> <PUBCHEM_FEATURE_SELFOVERLAP>
45.672

> <PUBCHEM_SHAPE_FINGERPRINT>
10165383 225 18042127707698960348
10411042 1 18267582412097344530
10483366 6 18337685182784412844
10675989 125 18335432304744565044
12166972 35 17750237993910842934
12516196 113 18339638919698658483
12788726 201 17975689489883508322
13140716 1 18050276274050292169
13944108 23 18408044000681362685
140371 6 17763744295602583591
14068700 675 18190462654331090126
14849402 71 18410296930308193481
14955137 171 18341326695743186811
15081414 286 18340473517537330529
15927050 60 18053096517354889742
17980427 26 18055053617707907748
18785283 64 18337100263482311803
19315092 285 16011828673701560026
20465049 17 18339653354956392836
21049683 271 18261116257297013636
23559900 14 18338787941455002283
24771293 8 18129075940815540458
3298306 158 18264214780159687318
3411729 13 18260266382196002402
376196 1 17054136387512012832
5104073 3 18408892833191686179
513532 50 18060703905400765326
5265222 85 17466812771609121676
5776283 40 18050018967398407996
633830 44 18055064617546258117
9962374 69 18342165692868742175
9981440 41 17833542776003910729

> <PUBCHEM_SHAPE_MULTIPOLES>
610.47
13.67
6.26
1.44
24.84
8.25
0.34
-8.35
2.08
-8.45
-2.12
-2.16
0.82
-1.23

> <PUBCHEM_SHAPE_SELFOVERLAP>
1261.663

> <PUBCHEM_SHAPE_VOLUME>
355.3

> <PUBCHEM_COORDINATE_TYPE>
2
5
10

$$$$
