10892019
  -OEChem-02172602443D

 38 39  0     0  0  0  0  0  0999 V2000
   -1.9873    1.4663    0.6297 S   0  0  0  0  0  0  0  0  0  0  0  0
   -2.7587    0.3455   -0.2799 O   0  0  0  0  0  0  0  0  0  0  0  0
   -1.9866    1.0274    2.0138 O   0  0  0  0  0  0  0  0  0  0  0  0
   -2.5053    2.7711    0.2547 O   0  0  0  0  0  0  0  0  0  0  0  0
    4.0416   -0.8033   -0.2890 N   0  0  0  0  0  0  0  0  0  0  0  0
    0.5239    0.3009    0.3605 C   0  0  0  0  0  0  0  0  0  0  0  0
    1.8581    0.3206   -0.1111 C   0  0  0  0  0  0  0  0  0  0  0  0
   -0.3164    1.3933    0.0900 C   0  0  0  0  0  0  0  0  0  0  0  0
    2.6982   -0.7719    0.1592 C   0  0  0  0  0  0  0  0  0  0  0  0
    2.3129    1.4321   -0.8391 C   0  0  0  0  0  0  0  0  0  0  0  0
    0.0690   -0.8107    1.0882 C   0  0  0  0  0  0  0  0  0  0  0  0
    0.1523    2.4893   -0.6350 C   0  0  0  0  0  0  0  0  0  0  0  0
    2.2295   -1.8681    0.8839 C   0  0  0  0  0  0  0  0  0  0  0  0
    1.4643    2.5087   -1.0987 C   0  0  0  0  0  0  0  0  0  0  0  0
    0.9175   -1.8875    1.3474 C   0  0  0  0  0  0  0  0  0  0  0  0
    4.3645   -1.3651   -1.5820 C   0  0  0  0  0  0  0  0  0  0  0  0
    5.0974   -0.2612    0.5377 C   0  0  0  0  0  0  0  0  0  0  0  0
   -4.1513    0.1438   -0.0937 C   0  0  0  0  0  0  0  0  0  0  0  0
   -4.6426   -0.9395   -1.0438 C   0  0  0  0  0  0  0  0  0  0  0  0
   -3.9659   -2.2219   -0.7961 C   0  0  0  0  0  0  0  0  0  0  0  0
   -3.4151   -3.2700   -0.5968 C   0  0  0  0  0  0  0  0  0  0  0  0
    3.3296    1.4919   -1.2194 H   0  0  0  0  0  0  0  0  0  0  0  0
   -0.9486   -0.9266    1.4397 H   0  0  0  0  0  0  0  0  0  0  0  0
   -0.4729    3.3470   -0.8633 H   0  0  0  0  0  0  0  0  0  0  0  0
    2.8787   -2.7154    1.0913 H   0  0  0  0  0  0  0  0  0  0  0  0
    1.8286    3.3621   -1.6635 H   0  0  0  0  0  0  0  0  0  0  0  0
    0.5505   -2.7468    1.9014 H   0  0  0  0  0  0  0  0  0  0  0  0
    4.0137   -0.7111   -2.3868 H   0  0  0  0  0  0  0  0  0  0  0  0
    3.8967   -2.3477   -1.7080 H   0  0  0  0  0  0  0  0  0  0  0  0
    5.4439   -1.5020   -1.7075 H   0  0  0  0  0  0  0  0  0  0  0  0
    5.3309   -0.9519    1.3547 H   0  0  0  0  0  0  0  0  0  0  0  0
    4.8063    0.7008    0.9735 H   0  0  0  0  0  0  0  0  0  0  0  0
    6.0156   -0.0929   -0.0350 H   0  0  0  0  0  0  0  0  0  0  0  0
   -4.3373   -0.1442    0.9476 H   0  0  0  0  0  0  0  0  0  0  0  0
   -4.6822    1.0802   -0.2967 H   0  0  0  0  0  0  0  0  0  0  0  0
   -4.4461   -0.6335   -2.0781 H   0  0  0  0  0  0  0  0  0  0  0  0
   -5.7256   -1.0615   -0.9339 H   0  0  0  0  0  0  0  0  0  0  0  0
   -2.9253   -4.1988   -0.4194 H   0  0  0  0  0  0  0  0  0  0  0  0
  1  2  1  0  0  0  0
  1  3  2  0  0  0  0
  1  4  2  0  0  0  0
  1  8  1  0  0  0  0
  2 18  1  0  0  0  0
  5  9  1  0  0  0  0
  5 16  1  0  0  0  0
  5 17  1  0  0  0  0
  6  7  2  0  0  0  0
  6  8  1  0  0  0  0
  6 11  1  0  0  0  0
  7  9  1  0  0  0  0
  7 10  1  0  0  0  0
  8 12  2  0  0  0  0
  9 13  2  0  0  0  0
 10 14  2  0  0  0  0
 10 22  1  0  0  0  0
 11 15  2  0  0  0  0
 11 23  1  0  0  0  0
 12 14  1  0  0  0  0
 12 24  1  0  0  0  0
 13 15  1  0  0  0  0
 13 25  1  0  0  0  0
 14 26  1  0  0  0  0
 15 27  1  0  0  0  0
 16 28  1  0  0  0  0
 16 29  1  0  0  0  0
 16 30  1  0  0  0  0
 17 31  1  0  0  0  0
 17 32  1  0  0  0  0
 17 33  1  0  0  0  0
 18 19  1  0  0  0  0
 18 34  1  0  0  0  0
 18 35  1  0  0  0  0
 19 20  1  0  0  0  0
 19 36  1  0  0  0  0
 19 37  1  0  0  0  0
 20 21  3  0  0  0  0
 21 38  1  0  0  0  0
M  END
> <PUBCHEM_COMPOUND_CID>
10892019

> <PUBCHEM_CONFORMER_RMSD>
0.8

> <PUBCHEM_CONFORMER_DIVERSEORDER>
1
3
14
11
15
10
6
13
12
5
7
8
9
4
2

> <PUBCHEM_MMFF94_PARTIAL_CHARGES>
26
1 1.49
10 -0.15
11 -0.15
12 -0.15
13 -0.15
14 -0.15
15 -0.15
16 0.37
17 0.37
18 0.28
19 0.2
2 -0.46
20 -0.2
21 -0.18
22 0.15
23 0.15
24 0.15
25 0.15
26 0.15
27 0.15
3 -0.65
38 0.18
4 -0.65
5 -0.84
8 -0.01
9 0.1

> <PUBCHEM_EFFECTIVE_ROTOR_COUNT>
5

> <PUBCHEM_PHARMACOPHORE_FEATURES>
6
1 21 hydrophobe
1 3 acceptor
1 4 acceptor
1 5 cation
6 6 7 8 10 12 14 rings
6 6 7 9 11 13 15 rings

> <PUBCHEM_HEAVY_ATOM_COUNT>
21

> <PUBCHEM_ATOM_DEF_STEREO_COUNT>
0

> <PUBCHEM_ATOM_UDEF_STEREO_COUNT>
0

> <PUBCHEM_BOND_DEF_STEREO_COUNT>
0

> <PUBCHEM_BOND_UDEF_STEREO_COUNT>
0

> <PUBCHEM_ISOTOPIC_ATOM_COUNT>
0

> <PUBCHEM_COMPONENT_COUNT>
1

> <PUBCHEM_CACTVS_TAUTO_COUNT>
1

> <PUBCHEM_CONFORMER_ID>
00A632F300000001

> <PUBCHEM_MMFF94_ENERGY>
67.5561

> <PUBCHEM_FEATURE_SELFOVERLAP>
30.489

> <PUBCHEM_SHAPE_FINGERPRINT>
10756046 5 18263930006463275703
11578080 2 18127666328138559457
11806522 49 18410569600280232664
12035759 4 18334009501610107203
12400797 292 18335415833190868019
12553582 1 18410564081669263555
12596599 1 18342469109687837406
13140716 1 18042425645665105104
13583140 156 16127799756834223992
14576447 43 18335414664548566651
14787075 74 18341893026331560808
16945 1 17969519134113605120
17349148 13 18040426703091486272
17909252 39 18055642964609645858
18915474 69 18341048635560310655
200 152 18334575724513146473
20291156 8 18340199791304029303
20775438 99 16544079613745783207
21452121 71 18342735243342339465
21475661 188 12541276540258039430
21634736 98 18336543918998927863
221357 26 18119244215293653783
221490 88 18117279370465164091
22393880 68 18260254261877167917
2334 1 17899439724723934896
23379529 103 18200604712103935383
23402539 116 18261108514024658618
23557571 272 17989201516946658264
23559900 14 18272640277407140873
23566358 2 17900278677412141838
238 59 17749391528601310313
2748010 2 17898316002302246840
3004659 81 18335971061078181295
34934 24 17898571964625028176
46194498 28 17315903645424074463
463206 1 18335704996269782313

> <PUBCHEM_SHAPE_MULTIPOLES>
413.43
8.84
3.23
1.33
1.15
0.09
-0.15
-5.34
2.78
1.89
0.53
-0.17
-0.19
-1.35

> <PUBCHEM_SHAPE_SELFOVERLAP>
859.734

> <PUBCHEM_SHAPE_VOLUME>
236.1

> <PUBCHEM_COORDINATE_TYPE>
2
5
10

$$$$
