81569
  -OEChem-02172602243D

 19 18  0     0  0  0  0  0  0999 V2000
    1.7759   -0.6838    0.3685 O   0  0  0  0  0  0  0  0  0  0  0  0
    0.9022    1.0444   -0.8844 O   0  0  0  0  0  0  0  0  0  0  0  0
   -1.6216    0.1105   -0.1801 N   0  0  0  0  0  0  0  0  0  0  0  0
   -0.4879   -0.8134   -0.1771 C   0  0  0  0  0  0  0  0  0  0  0  0
   -1.5262    1.0401    0.9449 C   0  0  0  0  0  0  0  0  0  0  0  0
   -2.8829   -0.6278   -0.1276 C   0  0  0  0  0  0  0  0  0  0  0  0
    0.7814   -0.0203   -0.2935 C   0  0  0  0  0  0  0  0  0  0  0  0
    3.0590   -0.0497    0.3493 C   0  0  0  0  0  0  0  0  0  0  0  0
   -0.4734   -1.4123    0.7421 H   0  0  0  0  0  0  0  0  0  0  0  0
   -0.5295   -1.4906   -1.0376 H   0  0  0  0  0  0  0  0  0  0  0  0
   -2.4094    1.6899    0.9706 H   0  0  0  0  0  0  0  0  0  0  0  0
   -0.6725    1.7200    0.8730 H   0  0  0  0  0  0  0  0  0  0  0  0
   -1.4719    0.5178    1.9077 H   0  0  0  0  0  0  0  0  0  0  0  0
   -3.7344    0.0596   -0.1811 H   0  0  0  0  0  0  0  0  0  0  0  0
   -2.9770   -1.2236    0.7877 H   0  0  0  0  0  0  0  0  0  0  0  0
   -2.9702   -1.3011   -0.9877 H   0  0  0  0  0  0  0  0  0  0  0  0
    3.0037    0.9311    0.8310 H   0  0  0  0  0  0  0  0  0  0  0  0
    3.4197    0.0439   -0.6795 H   0  0  0  0  0  0  0  0  0  0  0  0
    3.7568   -0.6773    0.9100 H   0  0  0  0  0  0  0  0  0  0  0  0
  1  7  1  0  0  0  0
  1  8  1  0  0  0  0
  2  7  2  0  0  0  0
  3  4  1  0  0  0  0
  3  5  1  0  0  0  0
  3  6  1  0  0  0  0
  4  7  1  0  0  0  0
  4  9  1  0  0  0  0
  4 10  1  0  0  0  0
  5 11  1  0  0  0  0
  5 12  1  0  0  0  0
  5 13  1  0  0  0  0
  6 14  1  0  0  0  0
  6 15  1  0  0  0  0
  6 16  1  0  0  0  0
  8 17  1  0  0  0  0
  8 18  1  0  0  0  0
  8 19  1  0  0  0  0
M  END
> <PUBCHEM_COMPOUND_CID>
81569

> <PUBCHEM_CONFORMER_RMSD>
0.6

> <PUBCHEM_CONFORMER_DIVERSEORDER>
1
5
4
2
6
3

> <PUBCHEM_MMFF94_PARTIAL_CHARGES>
8
1 -0.43
2 -0.57
3 -0.81
4 0.33
5 0.27
6 0.27
7 0.66
8 0.28

> <PUBCHEM_EFFECTIVE_ROTOR_COUNT>
3

> <PUBCHEM_PHARMACOPHORE_FEATURES>
2
1 2 acceptor
1 3 cation

> <PUBCHEM_HEAVY_ATOM_COUNT>
8

> <PUBCHEM_ATOM_DEF_STEREO_COUNT>
0

> <PUBCHEM_ATOM_UDEF_STEREO_COUNT>
0

> <PUBCHEM_BOND_DEF_STEREO_COUNT>
0

> <PUBCHEM_BOND_UDEF_STEREO_COUNT>
0

> <PUBCHEM_ISOTOPIC_ATOM_COUNT>
0

> <PUBCHEM_COMPONENT_COUNT>
1

> <PUBCHEM_CACTVS_TAUTO_COUNT>
1

> <PUBCHEM_CONFORMER_ID>
00013EA100000001

> <PUBCHEM_MMFF94_ENERGY>
16.7313

> <PUBCHEM_FEATURE_SELFOVERLAP>
10.148

> <PUBCHEM_SHAPE_FINGERPRINT>
10857977 72 17561075947414157107
11062470 55 18040428889119030711
14390081 3 17418088797948823392
21040471 1 17699591150955318113
24536 1 18269574804670938551
29004967 10 16878229684069892416
5084963 1 18334294279495471305
5460574 1 9223231857796746894

> <PUBCHEM_SHAPE_MULTIPOLES>
147.92
4.15
1.05
0.82
0.88
0.18
-0.06
-0.41
0.59
-0.4
0.09
0.11
0.16
-0.3

> <PUBCHEM_SHAPE_SELFOVERLAP>
269.801

> <PUBCHEM_SHAPE_VOLUME>
96.6

> <PUBCHEM_COORDINATE_TYPE>
2
5
10

$$$$
