24836956
  -OEChem-02172602563D

 41 41  0     1  0  0  0  0  0999 V2000
    1.3388   -2.0355   -1.5816 O   0  0  0  0  0  0  0  0  0  0  0  0
   -0.2035    1.6607    1.3675 O   0  0  0  0  0  0  0  0  0  0  0  0
    1.2097    0.7173   -0.3456 C   0  0  1  0  0  0  0  0  0  0  0  0
    2.3650    1.6878   -0.1029 C   0  0  0  0  0  0  0  0  0  0  0  0
    1.4612   -0.6267    0.3544 C   0  0  0  0  0  0  0  0  0  0  0  0
   -0.1822   -2.6760    0.1613 C   0  0  2  0  0  0  0  0  0  0  0  0
    0.9059   -1.7926   -0.4519 C   0  0  0  0  0  0  0  0  0  0  0  0
   -0.0734    1.3641    0.1781 C   0  0  0  0  0  0  0  0  0  0  0  0
   -1.4253   -1.8746    0.5701 C   0  0  0  0  0  0  0  0  0  0  0  0
   -1.1684    1.6624   -0.8376 C   0  0  0  0  0  0  0  0  0  0  0  0
   -2.1284   -1.2341   -0.6333 C   0  0  0  0  0  0  0  0  0  0  0  0
    3.5351    1.3761   -1.0343 C   0  0  0  0  0  0  0  0  0  0  0  0
    2.8141    1.6368    1.3565 C   0  0  0  0  0  0  0  0  0  0  0  0
   -2.5154    1.2504   -0.2975 C   0  0  0  0  0  0  0  0  0  0  0  0
    0.3913   -3.4584    1.3396 C   0  0  0  0  0  0  0  0  0  0  0  0
   -2.9268   -0.0311   -0.2167 C   0  0  0  0  0  0  0  0  0  0  0  0
   -3.3976    2.3733    0.1738 C   0  0  0  0  0  0  0  0  0  0  0  0
    1.0910    0.5711   -1.4255 H   0  0  0  0  0  0  0  0  0  0  0  0
    2.0324    2.7114   -0.3215 H   0  0  0  0  0  0  0  0  0  0  0  0
    2.5274   -0.8646    0.4396 H   0  0  0  0  0  0  0  0  0  0  0  0
    1.0548   -0.6454    1.3696 H   0  0  0  0  0  0  0  0  0  0  0  0
   -0.4763   -3.4008   -0.6095 H   0  0  0  0  0  0  0  0  0  0  0  0
   -2.1387   -2.5396    1.0747 H   0  0  0  0  0  0  0  0  0  0  0  0
   -1.1521   -1.1136    1.3102 H   0  0  0  0  0  0  0  0  0  0  0  0
   -1.1349    2.7353   -1.0587 H   0  0  0  0  0  0  0  0  0  0  0  0
   -0.9687    1.1517   -1.7843 H   0  0  0  0  0  0  0  0  0  0  0  0
   -1.4138   -0.9676   -1.4171 H   0  0  0  0  0  0  0  0  0  0  0  0
   -2.8036   -1.9649   -1.0951 H   0  0  0  0  0  0  0  0  0  0  0  0
    3.9441    0.3750   -0.8658 H   0  0  0  0  0  0  0  0  0  0  0  0
    3.2265    1.4429   -2.0830 H   0  0  0  0  0  0  0  0  0  0  0  0
    4.3472    2.0956   -0.8834 H   0  0  0  0  0  0  0  0  0  0  0  0
    3.3396    0.7132    1.6173 H   0  0  0  0  0  0  0  0  0  0  0  0
    2.0069    1.7876    2.0748 H   0  0  0  0  0  0  0  0  0  0  0  0
    3.5332    2.4463    1.5350 H   0  0  0  0  0  0  0  0  0  0  0  0
   -0.3305   -4.1992    1.6992 H   0  0  0  0  0  0  0  0  0  0  0  0
    1.3040   -3.9892    1.0478 H   0  0  0  0  0  0  0  0  0  0  0  0
    0.6448   -2.8030    2.1792 H   0  0  0  0  0  0  0  0  0  0  0  0
   -3.9086   -0.2446    0.2009 H   0  0  0  0  0  0  0  0  0  0  0  0
   -3.6188    3.0540   -0.6548 H   0  0  0  0  0  0  0  0  0  0  0  0
   -4.3520    2.0133    0.5720 H   0  0  0  0  0  0  0  0  0  0  0  0
   -2.8997    2.9403    0.9671 H   0  0  0  0  0  0  0  0  0  0  0  0
  1  7  2  0  0  0  0
  2  8  2  0  0  0  0
  3  4  1  0  0  0  0
  3  5  1  0  0  0  0
  3  8  1  0  0  0  0
  3 18  1  0  0  0  0
  4 12  1  0  0  0  0
  4 13  1  0  0  0  0
  4 19  1  0  0  0  0
  5  7  1  0  0  0  0
  5 20  1  0  0  0  0
  5 21  1  0  0  0  0
  6  7  1  0  0  0  0
  6  9  1  0  0  0  0
  6 15  1  0  0  0  0
  6 22  1  0  0  0  0
  8 10  1  0  0  0  0
  9 11  1  0  0  0  0
  9 23  1  0  0  0  0
  9 24  1  0  0  0  0
 10 14  1  0  0  0  0
 10 25  1  0  0  0  0
 10 26  1  0  0  0  0
 11 16  1  0  0  0  0
 11 27  1  0  0  0  0
 11 28  1  0  0  0  0
 12 29  1  0  0  0  0
 12 30  1  0  0  0  0
 12 31  1  0  0  0  0
 13 32  1  0  0  0  0
 13 33  1  0  0  0  0
 13 34  1  0  0  0  0
 14 16  2  0  0  0  0
 14 17  1  0  0  0  0
 15 35  1  0  0  0  0
 15 36  1  0  0  0  0
 15 37  1  0  0  0  0
 16 38  1  0  0  0  0
 17 39  1  0  0  0  0
 17 40  1  0  0  0  0
 17 41  1  0  0  0  0
M  END
> <PUBCHEM_COMPOUND_CID>
24836956

> <PUBCHEM_CONFORMER_RMSD>
0.6

> <PUBCHEM_CONFORMER_DIVERSEORDER>
5
14
21
18
32
34
36
29
6
13
1
24
26
35
17
27
31
10
9
20
15
25
16
7
12
19
30
28
33
4
3
22
23
8
11
2

> <PUBCHEM_MMFF94_PARTIAL_CHARGES>
13
1 -0.57
10 0.2
11 0.14
14 -0.28
16 -0.29
17 0.14
2 -0.57
3 0.06
38 0.15
5 0.06
6 0.06
7 0.45
8 0.45

> <PUBCHEM_EFFECTIVE_ROTOR_COUNT>
2.2

> <PUBCHEM_PHARMACOPHORE_FEATURES>
3
1 1 acceptor
1 2 acceptor
3 4 12 13 hydrophobe

> <PUBCHEM_HEAVY_ATOM_COUNT>
17

> <PUBCHEM_ATOM_DEF_STEREO_COUNT>
2

> <PUBCHEM_ATOM_UDEF_STEREO_COUNT>
0

> <PUBCHEM_BOND_DEF_STEREO_COUNT>
1

> <PUBCHEM_BOND_UDEF_STEREO_COUNT>
0

> <PUBCHEM_ISOTOPIC_ATOM_COUNT>
0

> <PUBCHEM_COMPONENT_COUNT>
1

> <PUBCHEM_CACTVS_TAUTO_COUNT>
24

> <PUBCHEM_CONFORMER_ID>
017AFB5C00000005

> <PUBCHEM_MMFF94_ENERGY>
33.3773

> <PUBCHEM_FEATURE_SELFOVERLAP>
15.223

> <PUBCHEM_SHAPE_FINGERPRINT>
104564 63 18194126441126553839
12054548 360 17112703042437940828
12716301 132 18196355129895520624
13132413 78 17903342724430094298
13140716 1 18337666425696724273
13380535 76 18411412929761420285
13538477 17 17680976698465110392
14178342 30 18341037563013795993
14251711 518 17979907225330896255
14251745 187 18127123293636135467
14817 1 8861850990228805459
16945 1 18046906253831132864
20510252 161 18197781222215043913
20645476 183 17678168511001648950
20645477 70 18126559025708542637
20691752 17 17822856364690009389
20905425 154 18341610459942526879
21501502 16 18410849937048145677
21524375 3 18411972581143197446
22344851 341 18338514145004052003
22802520 49 17619919795234726620
2334 1 18410290337042621071
23419403 2 17260813512213779895
23493267 7 18116719710672579546
23557571 272 17616814774662157428
23559900 14 18271814566667836972
2748010 2 18408892832162901031
2897 32 18193555558632306983
458136 41 18264787483651593321
5262128 65 17557435279525275703
5845 1 11027180652492706260
5939293 188 17693088570463756397
7364860 26 18056755429853174036
81228 2 17905595954267078312
8809292 202 18195250142168474384

> <PUBCHEM_SHAPE_MULTIPOLES>
338.11
4.64
3.8
1.21
0.46
2.7
-0.08
-3.75
0.4
-0.74
-0.78
0.61
0.18
0.17

> <PUBCHEM_SHAPE_SELFOVERLAP>
668.808

> <PUBCHEM_SHAPE_VOLUME>
200.7

> <PUBCHEM_COORDINATE_TYPE>
2
5
10

$$$$
