5319014
  -OEChem-02172602413D

 46 49  0     1  0  0  0  0  0999 V2000
    6.1376    1.1701    0.1307 O   0  0  0  0  0  0  0  0  0  0  0  0
   -0.4883    1.0866    0.2696 O   0  0  0  0  0  0  0  0  0  0  0  0
   -5.0024    2.2250    0.5593 O   0  0  0  0  0  0  0  0  0  0  0  0
   -3.8199   -2.4155   -0.1314 O   0  0  0  0  0  0  0  0  0  0  0  0
   -3.1573   -4.5837   -0.4552 O   0  0  0  0  0  0  0  0  0  0  0  0
    4.7173    1.0444    0.1527 C   0  0  2  0  0  0  0  0  0  0  0  0
    5.5945   -0.1393   -0.0818 C   0  0  2  0  0  0  0  0  0  0  0  0
    4.0309    1.7232   -0.9953 C   0  0  0  0  0  0  0  0  0  0  0  0
    5.6333   -1.1776    0.9355 C   0  0  0  0  0  0  0  0  0  0  0  0
    2.6152    1.2571   -1.2546 C   0  0  0  0  0  0  0  0  0  0  0  0
    4.5318   -2.2007    0.8698 C   0  0  0  0  0  0  0  0  0  0  0  0
    1.5140    1.8433   -0.7465 C   0  0  0  0  0  0  0  0  0  0  0  0
    2.4902    0.0681   -2.1709 C   0  0  0  0  0  0  0  0  0  0  0  0
    6.5695   -1.2458    1.8965 C   0  0  0  0  0  0  0  0  0  0  0  0
    0.0880    1.4552   -0.9785 C   0  0  0  0  0  0  0  0  0  0  0  0
   -1.7948    0.6789    0.2494 C   0  0  0  0  0  0  0  0  0  0  0  0
   -2.8304    1.6202    0.4119 C   0  0  0  0  0  0  0  0  0  0  0  0
   -2.1307   -0.6719    0.0675 C   0  0  0  0  0  0  0  0  0  0  0  0
   -4.1492    1.1762    0.3865 C   0  0  0  0  0  0  0  0  0  0  0  0
   -3.4713   -1.0569    0.0511 C   0  0  0  0  0  0  0  0  0  0  0  0
   -4.5255   -0.1528    0.2090 C   0  0  0  0  0  0  0  0  0  0  0  0
   -2.9003    3.0244    0.6124 C   0  0  0  0  0  0  0  0  0  0  0  0
   -1.1078   -1.6914   -0.1062 C   0  0  0  0  0  0  0  0  0  0  0  0
   -4.2368    3.3388    0.6948 C   0  0  0  0  0  0  0  0  0  0  0  0
   -1.4497   -2.9706   -0.2776 C   0  0  0  0  0  0  0  0  0  0  0  0
   -2.8578   -3.4053   -0.2988 C   0  0  0  0  0  0  0  0  0  0  0  0
    4.2192    1.1843    1.1029 H   0  0  0  0  0  0  0  0  0  0  0  0
    5.6795   -0.5208   -1.0941 H   0  0  0  0  0  0  0  0  0  0  0  0
    4.0141    2.7993   -0.7769 H   0  0  0  0  0  0  0  0  0  0  0  0
    4.6172    1.6289   -1.9189 H   0  0  0  0  0  0  0  0  0  0  0  0
    3.5548   -1.7165    0.9727 H   0  0  0  0  0  0  0  0  0  0  0  0
    4.5577   -2.7245   -0.0916 H   0  0  0  0  0  0  0  0  0  0  0  0
    4.6153   -2.9531    1.6612 H   0  0  0  0  0  0  0  0  0  0  0  0
    1.6558    2.7037   -0.0940 H   0  0  0  0  0  0  0  0  0  0  0  0
    3.3558   -0.5938   -2.0601 H   0  0  0  0  0  0  0  0  0  0  0  0
    2.4528    0.3973   -3.2141 H   0  0  0  0  0  0  0  0  0  0  0  0
    1.6194   -0.5568   -1.9597 H   0  0  0  0  0  0  0  0  0  0  0  0
    6.5612   -2.0343    2.6417 H   0  0  0  0  0  0  0  0  0  0  0  0
    7.3682   -0.5139    1.9574 H   0  0  0  0  0  0  0  0  0  0  0  0
   -0.4409    2.3326   -1.3716 H   0  0  0  0  0  0  0  0  0  0  0  0
   -0.0383    0.6529   -1.7095 H   0  0  0  0  0  0  0  0  0  0  0  0
   -5.5639   -0.4601    0.1950 H   0  0  0  0  0  0  0  0  0  0  0  0
   -2.0775    3.7212    0.6875 H   0  0  0  0  0  0  0  0  0  0  0  0
   -0.0602   -1.4137   -0.0873 H   0  0  0  0  0  0  0  0  0  0  0  0
   -4.7783    4.2619    0.8408 H   0  0  0  0  0  0  0  0  0  0  0  0
   -0.6895   -3.7337   -0.4037 H   0  0  0  0  0  0  0  0  0  0  0  0
  1  6  1  0  0  0  0
  1  7  1  0  0  0  0
  2 15  1  0  0  0  0
  2 16  1  0  0  0  0
  3 19  1  0  0  0  0
  3 24  1  0  0  0  0
  4 20  1  0  0  0  0
  4 26  1  0  0  0  0
  5 26  2  0  0  0  0
  6  7  1  0  0  0  0
  6  8  1  0  0  0  0
  6 27  1  0  0  0  0
  7  9  1  0  0  0  0
  7 28  1  0  0  0  0
  8 10  1  0  0  0  0
  8 29  1  0  0  0  0
  8 30  1  0  0  0  0
  9 11  1  0  0  0  0
  9 14  2  0  0  0  0
 10 12  2  0  0  0  0
 10 13  1  0  0  0  0
 11 31  1  0  0  0  0
 11 32  1  0  0  0  0
 11 33  1  0  0  0  0
 12 15  1  0  0  0  0
 12 34  1  0  0  0  0
 13 35  1  0  0  0  0
 13 36  1  0  0  0  0
 13 37  1  0  0  0  0
 14 38  1  0  0  0  0
 14 39  1  0  0  0  0
 15 40  1  0  0  0  0
 15 41  1  0  0  0  0
 16 17  1  0  0  0  0
 16 18  2  0  0  0  0
 17 19  2  0  0  0  0
 17 22  1  0  0  0  0
 18 20  1  0  0  0  0
 18 23  1  0  0  0  0
 19 21  1  0  0  0  0
 20 21  2  0  0  0  0
 21 42  1  0  0  0  0
 22 24  2  0  0  0  0
 22 43  1  0  0  0  0
 23 25  2  0  0  0  0
 23 44  1  0  0  0  0
 24 45  1  0  0  0  0
 25 26  1  0  0  0  0
 25 46  1  0  0  0  0
M  END
> <PUBCHEM_COMPOUND_CID>
5319014

> <PUBCHEM_CONFORMER_RMSD>
1

> <PUBCHEM_CONFORMER_DIVERSEORDER>
11
292
232
187
482
2
82
252
516
3
383
12
461
42
279
347
511
335
1
255
288
149
324
238
294
205
158
304
115
28
267
30
558
215
397
254
105
510
194
148
7
350
247
84
345
38
261
37
573
354
4
268
357
532
180
367
66
226
18
399
531
35
262
420
46
318
161
376
438
85
405
21
136
563
596
379
377
348
57
362
188
225
204
60
281
243
51
340
193
422
94
352
29
80
308
549
436
27
545
32
581
365
277
489
571
479
5
6
218
603
40
477
179
156
54
88
509
331
556
428
446
20
607
181
56
333
504
416
106
221
199
361
103
16
253
326
424
260
242
307
98
524
178
391
198
378
298
69
43
96
552
310

> <PUBCHEM_MMFF94_PARTIAL_CHARGES>
35
1 -0.3
10 -0.28
11 0.14
12 -0.29
13 0.14
14 -0.3
15 0.42
16 0.08
18 0.03
19 0.14
2 -0.36
20 0.08
21 -0.15
22 -0.15
23 -0.18
24 -0.01
25 -0.14
26 0.71
27 0.1
28 0.1
3 -0.28
34 0.15
38 0.15
39 0.15
4 -0.23
42 0.15
43 0.15
44 0.15
45 0.15
46 0.15
5 -0.57
6 -0.05
7 0.09
8 0.23
9 -0.18

> <PUBCHEM_EFFECTIVE_ROTOR_COUNT>
6.6

> <PUBCHEM_PHARMACOPHORE_FEATURES>
8
1 1 acceptor
1 13 hydrophobe
1 2 acceptor
1 3 acceptor
1 5 acceptor
5 3 17 19 22 24 rings
6 16 17 18 19 20 21 rings
6 4 18 20 23 25 26 rings

> <PUBCHEM_HEAVY_ATOM_COUNT>
26

> <PUBCHEM_ATOM_DEF_STEREO_COUNT>
0

> <PUBCHEM_ATOM_UDEF_STEREO_COUNT>
2

> <PUBCHEM_BOND_DEF_STEREO_COUNT>
1

> <PUBCHEM_BOND_UDEF_STEREO_COUNT>
0

> <PUBCHEM_ISOTOPIC_ATOM_COUNT>
0

> <PUBCHEM_COMPONENT_COUNT>
1

> <PUBCHEM_CACTVS_TAUTO_COUNT>
1

> <PUBCHEM_CONFORMER_ID>
005129660000000B

> <PUBCHEM_MMFF94_ENERGY>
63.0453

> <PUBCHEM_FEATURE_SELFOVERLAP>
40.729

> <PUBCHEM_SHAPE_FINGERPRINT>
10319926 262 18272652333986482318
10411042 1 17836931466615125735
10595046 47 18263928911711163468
10622 236 18191014806378332094
11796584 16 18342183254620055188
12107183 9 18263925445588042832
12422481 6 18042689394942396236
12523318 42 18272647991231305160
12788726 201 18049460419273962959
14347332 77 18266175213666055479
14840074 17 17749112145537481966
14844126 61 18339646771183387579
15042514 8 18267313221560147403
15250474 111 18335139851651318020
15484559 13 15151606960990754524
15537594 2 17821735992722600662
16120349 21 18263641758935094778
16994733 274 15912490074654042905
17818456 19 18409735028110787132
17857418 61 18333728040061428924
1813 80 16732988600793865364
19141452 34 18335984181939532796
20511986 3 18261381257148500080
20554085 129 17844800387640235737
21703447 108 17911233146188309384
21728266 224 18340205305424690111
21859007 373 17679578935355032229
229767 44 18336825273753243584
23559900 14 18058470732854929636
3117164 225 18411418376344415076
338550 245 18260835890849048566
3633792 109 18115009824299896717
463206 1 18040999570504377450
5028188 123 18410583908040149308
5085150 59 18272082791058178695
5104073 3 18271252727955651560
513202 73 16806442509858119436
559249 180 18261109647305525489
56633871 153 18117547428470730410
5924683 9 18340205292555690364
6823239 73 18130245774301303334
7064713 232 18339917135264007858
9709674 26 18129401413067693445
9981440 41 18266471910434138137

> <PUBCHEM_SHAPE_MULTIPOLES>
505.72
14.7
4.38
1.25
20.52
3.43
0.22
-0.4
-5.47
-6.2
0.05
1.77
-0.11
-3.09

> <PUBCHEM_SHAPE_SELFOVERLAP>
1092.953

> <PUBCHEM_SHAPE_VOLUME>
280.5

> <PUBCHEM_COORDINATE_TYPE>
2
5
10

$$$$
