5316819
  -OEChem-02172602353D

 37 38  0     0  0  0  0  0  0999 V2000
   -1.2556    1.8829   -0.8222 O   0  0  0  0  0  0  0  0  0  0  0  0
    6.7353    0.1706    0.8724 O   0  0  0  0  0  0  0  0  0  0  0  0
   -4.0289   -1.9175    2.2473 O   0  0  0  0  0  0  0  0  0  0  0  0
    6.4262   -2.1332   -0.6519 O   0  0  0  0  0  0  0  0  0  0  0  0
   -4.7825   -3.3077   -0.0387 O   0  0  0  0  0  0  0  0  0  0  0  0
   -0.2088    2.8713    1.0072 O   0  0  0  0  0  0  0  0  0  0  0  0
    3.1577    0.3034    0.1340 C   0  0  0  0  0  0  0  0  0  0  0  0
   -3.8912    0.7228   -0.2571 C   0  0  0  0  0  0  0  0  0  0  0  0
    4.4133    0.6437    0.6373 C   0  0  0  0  0  0  0  0  0  0  0  0
    3.0028   -0.8525   -0.6313 C   0  0  0  0  0  0  0  0  0  0  0  0
   -3.8091    0.0784    0.9670 C   0  0  0  0  0  0  0  0  0  0  0  0
   -4.2651    0.0427   -1.4052 C   0  0  0  0  0  0  0  0  0  0  0  0
    5.5140   -0.1722    0.3755 C   0  0  0  0  0  0  0  0  0  0  0  0
   -4.1089   -1.2817    1.0451 C   0  0  0  0  0  0  0  0  0  0  0  0
    5.3591   -1.3280   -0.3897 C   0  0  0  0  0  0  0  0  0  0  0  0
    4.1035   -1.6683   -0.8931 C   0  0  0  0  0  0  0  0  0  0  0  0
   -4.4869   -1.9795   -0.1020 C   0  0  0  0  0  0  0  0  0  0  0  0
   -4.5649   -1.3173   -1.3273 C   0  0  0  0  0  0  0  0  0  0  0  0
    2.0099    1.1541    0.4067 C   0  0  0  0  0  0  0  0  0  0  0  0
   -3.5746    2.1586   -0.3397 C   0  0  0  0  0  0  0  0  0  0  0  0
    0.8603    1.1668   -0.3042 C   0  0  0  0  0  0  0  0  0  0  0  0
   -2.3672    2.6718   -0.5984 C   0  0  0  0  0  0  0  0  0  0  0  0
   -0.2386    2.0905    0.0682 C   0  0  0  0  0  0  0  0  0  0  0  0
    4.5472    1.5434    1.2341 H   0  0  0  0  0  0  0  0  0  0  0  0
    2.0416   -1.1677   -1.0268 H   0  0  0  0  0  0  0  0  0  0  0  0
   -3.5141    0.6237    1.8603 H   0  0  0  0  0  0  0  0  0  0  0  0
   -4.3300    0.5474   -2.3656 H   0  0  0  0  0  0  0  0  0  0  0  0
    3.9685   -2.5685   -1.4870 H   0  0  0  0  0  0  0  0  0  0  0  0
   -4.8588   -1.8552   -2.2245 H   0  0  0  0  0  0  0  0  0  0  0  0
    2.1210    1.8316    1.2509 H   0  0  0  0  0  0  0  0  0  0  0  0
   -4.4129    2.8298   -0.1737 H   0  0  0  0  0  0  0  0  0  0  0  0
    0.6982    0.5351   -1.1703 H   0  0  0  0  0  0  0  0  0  0  0  0
   -2.1581    3.7302   -0.6614 H   0  0  0  0  0  0  0  0  0  0  0  0
    7.3789   -0.5041    0.5945 H   0  0  0  0  0  0  0  0  0  0  0  0
   -3.7524   -1.2784    2.9263 H   0  0  0  0  0  0  0  0  0  0  0  0
    6.1306   -2.8844   -1.1943 H   0  0  0  0  0  0  0  0  0  0  0  0
   -4.6763   -3.6010    0.8830 H   0  0  0  0  0  0  0  0  0  0  0  0
  1 22  1  0  0  0  0
  1 23  1  0  0  0  0
  2 13  1  0  0  0  0
  2 34  1  0  0  0  0
  3 14  1  0  0  0  0
  3 35  1  0  0  0  0
  4 15  1  0  0  0  0
  4 36  1  0  0  0  0
  5 17  1  0  0  0  0
  5 37  1  0  0  0  0
  6 23  2  0  0  0  0
  7  9  2  0  0  0  0
  7 10  1  0  0  0  0
  7 19  1  0  0  0  0
  8 11  2  0  0  0  0
  8 12  1  0  0  0  0
  8 20  1  0  0  0  0
  9 13  1  0  0  0  0
  9 24  1  0  0  0  0
 10 16  2  0  0  0  0
 10 25  1  0  0  0  0
 11 14  1  0  0  0  0
 11 26  1  0  0  0  0
 12 18  2  0  0  0  0
 12 27  1  0  0  0  0
 13 15  2  0  0  0  0
 14 17  2  0  0  0  0
 15 16  1  0  0  0  0
 16 28  1  0  0  0  0
 17 18  1  0  0  0  0
 18 29  1  0  0  0  0
 19 21  2  0  0  0  0
 19 30  1  0  0  0  0
 20 22  2  0  0  0  0
 20 31  1  0  0  0  0
 21 23  1  0  0  0  0
 21 32  1  0  0  0  0
 22 33  1  0  0  0  0
M  END
> <PUBCHEM_COMPOUND_CID>
5316819

> <PUBCHEM_CONFORMER_RMSD>
0.8

> <PUBCHEM_CONFORMER_DIVERSEORDER>
2
220
181
69
111
232
86
50
222
233
133
24
193
51
134
141
116
125
67
80
128
189
208
186
149
114
78
200
40
16
105
117
198
217
99
185
12
201
119
83
132
104
9
179
30
107
39
110
63
131
192
89
143
174
165
59
97
54
79
204
238
66
60
177
160
231
182
122
13
223
171
65
158
203
21
175
176
10
183
151
156
72
1
91
57
184
81
172
62
170
214
96
147
95
144
187
135
226
109
190
191
84
154
148
163
236
29
118
202
43
45
98
11
159
77
88
113
162
48
121
100
161
108
173
129
169
210
53
218
8
235
188
115
32
19
112
120
27
26
17
205
178
229
90
221
227
152
164
139
228
136
196
42
82
5
20
155
28
34
130
150
206
166
153
85
207
140
25
123
102
234
157
46
224
87
33
4
73
195
225
37
38
138
124
74
101
76
61
199
237
58
215
219
14
52
213
126
75
146
93
35
142
18
92
55
22
168
180
7
31
137
197
23
94
3
145
167
106
209
6
15
127
239
64
216
56
44
36
212
230
47
194
49
68
71
41
103
211
70

> <PUBCHEM_MMFF94_PARTIAL_CHARGES>
37
1 -0.23
10 -0.15
11 -0.15
12 -0.15
13 0.08
14 0.08
15 0.08
16 -0.15
17 0.08
18 -0.15
19 -0.18
2 -0.53
20 -0.18
21 -0.14
22 -0.07
23 0.71
24 0.15
25 0.15
26 0.15
27 0.15
28 0.15
29 0.15
3 -0.53
30 0.15
31 0.15
32 0.15
33 0.15
34 0.45
35 0.45
36 0.45
37 0.45
4 -0.53
5 -0.53
6 -0.57
7 0.03
8 0.03
9 -0.15

> <PUBCHEM_EFFECTIVE_ROTOR_COUNT>
5

> <PUBCHEM_PHARMACOPHORE_FEATURES>
7
1 2 donor
1 3 donor
1 4 donor
1 5 donor
1 6 acceptor
6 7 9 10 13 15 16 rings
6 8 11 12 14 17 18 rings

> <PUBCHEM_HEAVY_ATOM_COUNT>
23

> <PUBCHEM_ATOM_DEF_STEREO_COUNT>
0

> <PUBCHEM_ATOM_UDEF_STEREO_COUNT>
0

> <PUBCHEM_BOND_DEF_STEREO_COUNT>
2

> <PUBCHEM_BOND_UDEF_STEREO_COUNT>
0

> <PUBCHEM_ISOTOPIC_ATOM_COUNT>
0

> <PUBCHEM_COMPONENT_COUNT>
1

> <PUBCHEM_CACTVS_TAUTO_COUNT>
51

> <PUBCHEM_CONFORMER_ID>
005120D300000002

> <PUBCHEM_MMFF94_ENERGY>
68.7542

> <PUBCHEM_FEATURE_SELFOVERLAP>
35.531

> <PUBCHEM_SHAPE_FINGERPRINT>
10883706 89 9798846970918251750
10968037 57 18340488963062464387
11135609 99 18119523238245010658
11186622 123 18188766141801076378
12596602 18 15985094249633125243
12616971 3 17313400984438527052
12633257 1 15625942109757789365
13103583 49 17060348435024348945
13402501 40 18412825785129089111
13544653 18 18342459248453936365
13911882 115 18059577962623156830
13941219 33 18272099253662348081
14251751 18 18409451388396329676
14429380 30 18192149515173538235
14461889 52 18340193160364966360
14848178 5 18409164437077866765
14931854 50 17821996611122422315
14950920 106 16343417418635655723
15183329 4 15140680267948041882
15352361 1 18411698815938543309
15510800 12 18335137652428154699
15537594 2 17822010865891667729
17627616 140 17969211257694248099
17780758 139 17846221042509608897
18927931 339 18335144176435556127
193927 3 18334299781232825348
20281389 69 10159694699072260316
21054139 6 17967246490981790690
21401589 2 10663827394915583989
21403212 168 18269850731642296801
21623969 137 17775564217953826870
2303208 19 17988647363877459108
23424784 1240 18201447926290905822
23428019 142 17240202148975888867
23559900 14 18339630196530539425
25122255 55 18341056220483085438
2838139 119 8214146244111673400
3089732 80 18412265034383474614
329604 57 18334016133245236740
3383291 50 18409730660856930667
4073 2 18339361860317105992
4280585 95 17894619370683971820
5104073 3 17844521116355859288
5365585 94 18261118495323225291
54583773 228 18410583878054590438
5486654 36 18410865360724624969
56633871 153 18196660820626397899
6431902 208 18411697703268057870
7970288 3 18193838365360862687
8863177 126 18343021069532286430
9862886 166 18186518817490337160

> <PUBCHEM_SHAPE_MULTIPOLES>
438.11
16.3
3.16
1.25
17.09
0.01
-0.29
10.77
-0.19
-3.39
0
-1.3
0.42
1.79

> <PUBCHEM_SHAPE_SELFOVERLAP>
941.844

> <PUBCHEM_SHAPE_VOLUME>
238.7

> <PUBCHEM_COORDINATE_TYPE>
2
5
10

$$$$
