6429034
  -OEChem-02172602343D

 43 42  0     1  0  0  0  0  0999 V2000
   -1.8832    0.8526    0.2491 O   0  0  0  0  0  0  0  0  0  0  0  0
   -2.2608   -1.1510    1.3282 O   0  0  0  0  0  0  0  0  0  0  0  0
   -3.9548   -0.2209   -0.1493 C   0  0  1  0  0  0  0  0  0  0  0  0
   -4.1099   -1.4231   -1.0921 C   0  0  0  0  0  0  0  0  0  0  0  0
    2.1117    1.1724   -0.7208 C   0  0  0  0  0  0  0  0  0  0  0  0
    1.2346    2.3255   -0.2795 C   0  0  0  0  0  0  0  0  0  0  0  0
    3.1389    0.7386    0.3331 C   0  0  0  0  0  0  0  0  0  0  0  0
   -5.0704   -0.1986    0.8918 C   0  0  0  0  0  0  0  0  0  0  0  0
   -2.6217   -0.2529    0.5786 C   0  0  0  0  0  0  0  0  0  0  0  0
   -3.0305   -1.4666   -2.1662 C   0  0  0  0  0  0  0  0  0  0  0  0
    0.0642    2.1958    0.3751 C   0  0  0  0  0  0  0  0  0  0  0  0
   -0.5942    0.9368    0.8422 C   0  0  0  0  0  0  0  0  0  0  0  0
    3.9859   -0.4158   -0.1263 C   0  0  0  0  0  0  0  0  0  0  0  0
    1.7404    3.6950   -0.6551 C   0  0  0  0  0  0  0  0  0  0  0  0
    3.8052   -1.7278    0.1165 C   0  0  0  0  0  0  0  0  0  0  0  0
    4.7756   -2.7422   -0.4278 C   0  0  0  0  0  0  0  0  0  0  0  0
    2.6692   -2.3179    0.9024 C   0  0  0  0  0  0  0  0  0  0  0  0
   -4.0175    0.7028   -0.7385 H   0  0  0  0  0  0  0  0  0  0  0  0
   -4.0748   -2.3597   -0.5220 H   0  0  0  0  0  0  0  0  0  0  0  0
   -5.0917   -1.3807   -1.5788 H   0  0  0  0  0  0  0  0  0  0  0  0
    2.6301    1.4498   -1.6486 H   0  0  0  0  0  0  0  0  0  0  0  0
    1.4853    0.3157   -0.9994 H   0  0  0  0  0  0  0  0  0  0  0  0
    3.8065    1.5777    0.5672 H   0  0  0  0  0  0  0  0  0  0  0  0
    2.6341    0.4973    1.2753 H   0  0  0  0  0  0  0  0  0  0  0  0
   -4.9524    0.6536    1.5702 H   0  0  0  0  0  0  0  0  0  0  0  0
   -6.0504   -0.1147    0.4106 H   0  0  0  0  0  0  0  0  0  0  0  0
   -5.0685   -1.1083    1.5027 H   0  0  0  0  0  0  0  0  0  0  0  0
   -3.0237   -0.5420   -2.7521 H   0  0  0  0  0  0  0  0  0  0  0  0
   -3.2165   -2.3000   -2.8512 H   0  0  0  0  0  0  0  0  0  0  0  0
   -2.0359   -1.6082   -1.7325 H   0  0  0  0  0  0  0  0  0  0  0  0
   -0.4825    3.1037    0.6281 H   0  0  0  0  0  0  0  0  0  0  0  0
   -0.0150    0.0446    0.5879 H   0  0  0  0  0  0  0  0  0  0  0  0
   -0.7000    0.9820    1.9325 H   0  0  0  0  0  0  0  0  0  0  0  0
    4.8428   -0.1210   -0.7311 H   0  0  0  0  0  0  0  0  0  0  0  0
    1.0787    4.4954   -0.3074 H   0  0  0  0  0  0  0  0  0  0  0  0
    2.7277    3.8677   -0.2147 H   0  0  0  0  0  0  0  0  0  0  0  0
    1.8240    3.7831   -1.7432 H   0  0  0  0  0  0  0  0  0  0  0  0
    5.2232   -3.3148    0.3912 H   0  0  0  0  0  0  0  0  0  0  0  0
    5.5914   -2.2794   -0.9932 H   0  0  0  0  0  0  0  0  0  0  0  0
    4.2605   -3.4382   -1.0982 H   0  0  0  0  0  0  0  0  0  0  0  0
    2.1338   -3.0555    0.2953 H   0  0  0  0  0  0  0  0  0  0  0  0
    1.9362   -1.5737    1.2230 H   0  0  0  0  0  0  0  0  0  0  0  0
    3.0503   -2.8188    1.7982 H   0  0  0  0  0  0  0  0  0  0  0  0
  1  9  1  0  0  0  0
  1 12  1  0  0  0  0
  2  9  2  0  0  0  0
  3  4  1  0  0  0  0
  3  8  1  0  0  0  0
  3  9  1  0  0  0  0
  3 18  1  0  0  0  0
  4 10  1  0  0  0  0
  4 19  1  0  0  0  0
  4 20  1  0  0  0  0
  5  6  1  0  0  0  0
  5  7  1  0  0  0  0
  5 21  1  0  0  0  0
  5 22  1  0  0  0  0
  6 11  2  0  0  0  0
  6 14  1  0  0  0  0
  7 13  1  0  0  0  0
  7 23  1  0  0  0  0
  7 24  1  0  0  0  0
  8 25  1  0  0  0  0
  8 26  1  0  0  0  0
  8 27  1  0  0  0  0
 10 28  1  0  0  0  0
 10 29  1  0  0  0  0
 10 30  1  0  0  0  0
 11 12  1  0  0  0  0
 11 31  1  0  0  0  0
 12 32  1  0  0  0  0
 12 33  1  0  0  0  0
 13 15  2  0  0  0  0
 13 34  1  0  0  0  0
 14 35  1  0  0  0  0
 14 36  1  0  0  0  0
 14 37  1  0  0  0  0
 15 16  1  0  0  0  0
 15 17  1  0  0  0  0
 16 38  1  0  0  0  0
 16 39  1  0  0  0  0
 16 40  1  0  0  0  0
 17 41  1  0  0  0  0
 17 42  1  0  0  0  0
 17 43  1  0  0  0  0
M  END
> <PUBCHEM_COMPOUND_CID>
6429034

> <PUBCHEM_CONFORMER_RMSD>
1

> <PUBCHEM_CONFORMER_DIVERSEORDER>
1
230
46
235
111
247
192
145
242
232
91
251
34
182
195
4
179
138
51
25
86
88
205
241
45
183
29
196
117
166
31
260
173
94
175
116
169
248
33
72
68
262
158
89
106
10
194
87
84
3
42
245
127
202
236
146
233
26
221
199
140
261
44
53
57
250
114
178
180
59
185
76
123
82
239
66
240
258
83
70
190
99
216
113
186
219
252
101
122
212
63
243
9
14
234
142
47
254
160
30
165
121
124
149
109
237
120
211
264
77
90
18
80
249
153
184
74
174
259
176
231
49
118
40
159
58
144
60
161
61
215
181
81
141
137
97
50
5
19
119
171
143
115
62
36
201
130
217
41
8
7
155
244
225
98
56
129
229
163
207
93
177
39
55
227
108
67
266
105
78
189
148
54
193
22
75
132
200
69
2
52
188
253
126
228
35
164
197
226
92
64
28
102
170
135
157
128
265
79
257
65
48
27
204
12
95
37
255
32
133
13
209
23
107
220
151
17
210
224
191
246
21
152
16
85
43
11
206
24
208
218
139
150
104
100
213
167
187
154
222
38
263
147
73
168
131
198
15
162
256
110
71
112
203
103
6
214
96
156
125
134
20
223
136
238
172

> <PUBCHEM_MMFF94_PARTIAL_CHARGES>
16
1 -0.43
11 -0.29
12 0.42
13 -0.29
14 0.14
15 -0.28
16 0.14
17 0.14
2 -0.57
3 0.06
31 0.15
34 0.15
5 0.14
6 -0.28
7 0.14
9 0.66

> <PUBCHEM_EFFECTIVE_ROTOR_COUNT>
8

> <PUBCHEM_PHARMACOPHORE_FEATURES>
6
1 10 hydrophobe
1 14 hydrophobe
1 2 acceptor
1 8 hydrophobe
3 15 16 17 hydrophobe
4 5 6 7 13 hydrophobe

> <PUBCHEM_HEAVY_ATOM_COUNT>
17

> <PUBCHEM_ATOM_DEF_STEREO_COUNT>
0

> <PUBCHEM_ATOM_UDEF_STEREO_COUNT>
1

> <PUBCHEM_BOND_DEF_STEREO_COUNT>
1

> <PUBCHEM_BOND_UDEF_STEREO_COUNT>
0

> <PUBCHEM_ISOTOPIC_ATOM_COUNT>
0

> <PUBCHEM_COMPONENT_COUNT>
1

> <PUBCHEM_CACTVS_TAUTO_COUNT>
1

> <PUBCHEM_CONFORMER_ID>
0062196A00000001

> <PUBCHEM_MMFF94_ENERGY>
13.9849

> <PUBCHEM_FEATURE_SELFOVERLAP>
30.452

> <PUBCHEM_SHAPE_FINGERPRINT>
10042902 136 17988927760606720006
10062212 137 18060418058236920591
11118852 30 17846779611443615494
11265709 11 18338241466352634512
12410352 35 18131348639443851711
12553582 1 18261112907465232986
13533116 47 18339648948868735921
14251757 17 16660635220320513886
15352361 1 18337113367496317970
15537594 2 18341905107551980542
17539 30 18046338631328463796
17818456 19 17988090984955586153
18186145 218 17241319313119717177
20291156 8 18340484474341650630
20626108 58 17631722898135167341
20645477 70 18115026445021894432
20671657 53 18408890615812225992
21250096 35 18272368667822193633
212916 134 16271387209778413387
2255824 54 18265899253416887932
235170 7 16587744230833893982
23559900 14 18262800808001009416
2871803 45 18187651250306415050
314173 41 18334021587922144530
351380 3 18341335513363533198
4283 87 18340476841868728854
46194498 28 17095532849746258676
5207 123 18337954489216791157
573450 72 17489592290193402329
59025328 239 17981568788915711421
59682541 52 18123159512001814047
6025842 7 18191308392809259604
7064713 232 17203328866781250767

> <PUBCHEM_SHAPE_MULTIPOLES>
338.11
10.34
3.56
1.3
3.62
1.89
0.42
-8.19
0.51
-4.52
0.74
1.33
-0.54
-1.21

> <PUBCHEM_SHAPE_SELFOVERLAP>
636.986

> <PUBCHEM_SHAPE_VOLUME>
211.1

> <PUBCHEM_COORDINATE_TYPE>
2
5
10

$$$$
