10168662
  -OEChem-02172602543D

 82 86  0     1  0  0  0  0  0999 V2000
    5.8702    2.6740    0.2772 Cl  0  0  0  0  0  0  0  0  0  0  0  0
    5.9051   -0.5261    2.5275 F   0  0  0  0  0  0  0  0  0  0  0  0
   -4.9321   -3.2403   -0.7093 O   0  0  0  0  0  0  0  0  0  0  0  0
   -4.3816   -0.0211    3.1930 O   0  0  0  0  0  0  0  0  0  0  0  0
   -6.8227    0.6345   -0.6966 O   0  0  0  0  0  0  0  0  0  0  0  0
   -3.1560   -2.4109   -2.7679 O   0  0  0  0  0  0  0  0  0  0  0  0
    0.9383    0.6699   -2.4474 O   0  0  0  0  0  0  0  0  0  0  0  0
   -1.1972   -4.5718   -2.3150 O   0  0  0  0  0  0  0  0  0  0  0  0
   -8.9613   -0.4196    0.7590 O   0  0  0  0  0  0  0  0  0  0  0  0
    2.1901   -1.6559   -1.2414 O   0  0  0  0  0  0  0  0  0  0  0  0
   -1.6867    0.8318    1.5570 N   0  0  0  0  0  0  0  0  0  0  0  0
    0.4371    1.7163   -0.3839 N   0  0  0  0  0  0  0  0  0  0  0  0
   -4.6120   -0.7167    0.9975 N   0  0  0  0  0  0  0  0  0  0  0  0
   -0.3522    0.5320    1.5309 C   0  0  0  0  0  0  0  0  0  0  0  0
   -2.2128    2.1570    1.2837 C   0  0  0  0  0  0  0  0  0  0  0  0
   -2.4043   -0.2574    1.9676 C   0  0  0  0  0  0  0  0  0  0  0  0
    0.6203    1.5481    1.0675 C   0  0  0  0  0  0  0  0  0  0  0  0
   -1.8982    2.6895   -0.1004 C   0  0  0  0  0  0  0  0  0  0  0  0
   -0.7032    2.4951   -0.8458 C   0  0  0  0  0  0  0  0  0  0  0  0
   -4.0550   -1.0544   -0.3113 C   0  0  0  0  0  0  0  0  0  0  0  0
   -3.8272   -0.3144    2.1140 C   0  0  0  0  0  0  0  0  0  0  0  0
   -0.2105   -0.7786    1.9364 C   0  0  0  0  0  0  0  0  0  0  0  0
   -1.5087   -1.2774    2.2095 C   0  0  0  0  0  0  0  0  0  0  0  0
   -6.0638   -0.7910    1.0987 C   0  0  0  0  0  0  0  0  0  0  0  0
   -3.7189   -2.5428   -0.4084 C   0  0  2  0  0  0  0  0  0  0  0  0
   -6.7534    0.5199    0.7252 C   0  0  2  0  0  0  0  0  0  0  0  0
   -2.6908   -2.8801   -1.5001 C   0  0  1  0  0  0  0  0  0  0  0  0
   -2.9204    3.4991   -0.6533 C   0  0  0  0  0  0  0  0  0  0  0  0
    1.2564    1.0356   -1.3160 C   0  0  0  0  0  0  0  0  0  0  0  0
   -0.6043    3.1313   -2.1054 C   0  0  0  0  0  0  0  0  0  0  0  0
   -2.7982    4.0935   -1.9051 C   0  0  0  0  0  0  0  0  0  0  0  0
   -1.6357    3.9109   -2.6314 C   0  0  0  0  0  0  0  0  0  0  0  0
   -2.4265   -4.3774   -1.6213 C   0  0  0  0  0  0  0  0  0  0  0  0
   -8.1658    0.6359    1.2894 C   0  0  0  0  0  0  0  0  0  0  0  0
    2.6252    0.6805   -0.9130 C   0  0  0  0  0  0  0  0  0  0  0  0
    3.0411   -0.6507   -0.8900 C   0  0  0  0  0  0  0  0  0  0  0  0
    3.5118    1.6945   -0.5502 C   0  0  0  0  0  0  0  0  0  0  0  0
    4.3435   -0.9681   -0.5042 C   0  0  0  0  0  0  0  0  0  0  0  0
    5.2300    0.0458   -0.1413 C   0  0  0  0  0  0  0  0  0  0  0  0
    4.8142    1.3770   -0.1642 C   0  0  0  0  0  0  0  0  0  0  0  0
    6.5747   -0.3287    0.2540 C   0  0  0  0  0  0  0  0  0  0  0  0
    6.8622   -0.6029    1.5912 C   0  0  0  0  0  0  0  0  0  0  0  0
    7.5816   -0.4144   -0.7076 C   0  0  0  0  0  0  0  0  0  0  0  0
    2.7019   -2.9857   -1.1880 C   0  0  0  0  0  0  0  0  0  0  0  0
    8.1565   -0.9631    1.9665 C   0  0  0  0  0  0  0  0  0  0  0  0
    8.8759   -0.7743   -0.3320 C   0  0  0  0  0  0  0  0  0  0  0  0
    9.1634   -1.0485    1.0049 C   0  0  0  0  0  0  0  0  0  0  0  0
   -3.2961    2.1206    1.4425 H   0  0  0  0  0  0  0  0  0  0  0  0
   -1.8004    2.8346    2.0412 H   0  0  0  0  0  0  0  0  0  0  0  0
    1.6277    1.2031    1.3107 H   0  0  0  0  0  0  0  0  0  0  0  0
    0.4971    2.5171    1.5642 H   0  0  0  0  0  0  0  0  0  0  0  0
   -3.1495   -0.4615   -0.4684 H   0  0  0  0  0  0  0  0  0  0  0  0
   -4.7610   -0.7699   -1.0962 H   0  0  0  0  0  0  0  0  0  0  0  0
    0.7226   -1.3194    2.0127 H   0  0  0  0  0  0  0  0  0  0  0  0
   -1.7586   -2.2743    2.5461 H   0  0  0  0  0  0  0  0  0  0  0  0
   -6.3085   -1.0441    2.1368 H   0  0  0  0  0  0  0  0  0  0  0  0
   -6.4348   -1.6073    0.4734 H   0  0  0  0  0  0  0  0  0  0  0  0
   -3.3462   -2.9264    0.5484 H   0  0  0  0  0  0  0  0  0  0  0  0
   -6.1743    1.3736    1.0989 H   0  0  0  0  0  0  0  0  0  0  0  0
   -1.7526   -2.3515   -1.2945 H   0  0  0  0  0  0  0  0  0  0  0  0
   -3.8400    3.6722   -0.0959 H   0  0  0  0  0  0  0  0  0  0  0  0
    0.3053    3.0578   -2.6981 H   0  0  0  0  0  0  0  0  0  0  0  0
   -3.6032    4.7044   -2.3013 H   0  0  0  0  0  0  0  0  0  0  0  0
   -1.5182    4.3829   -3.6024 H   0  0  0  0  0  0  0  0  0  0  0  0
   -2.3206   -4.8377   -0.6340 H   0  0  0  0  0  0  0  0  0  0  0  0
   -3.2163   -4.8885   -2.1811 H   0  0  0  0  0  0  0  0  0  0  0  0
   -8.1663    0.5694    2.3816 H   0  0  0  0  0  0  0  0  0  0  0  0
   -8.6236    1.5816    0.9822 H   0  0  0  0  0  0  0  0  0  0  0  0
   -5.3886   -3.4042    0.1330 H   0  0  0  0  0  0  0  0  0  0  0  0
   -4.0271   -2.8119   -2.9303 H   0  0  0  0  0  0  0  0  0  0  0  0
   -5.9603    0.9612   -1.0037 H   0  0  0  0  0  0  0  0  0  0  0  0
    3.1871    2.7328   -0.5734 H   0  0  0  0  0  0  0  0  0  0  0  0
    4.7193   -1.9859   -0.4679 H   0  0  0  0  0  0  0  0  0  0  0  0
   -1.0499   -5.5315   -2.3697 H   0  0  0  0  0  0  0  0  0  0  0  0
   -9.8534   -0.3183    1.1322 H   0  0  0  0  0  0  0  0  0  0  0  0
    7.3749   -0.2038   -1.7543 H   0  0  0  0  0  0  0  0  0  0  0  0
    3.5220   -3.1330   -1.8989 H   0  0  0  0  0  0  0  0  0  0  0  0
    2.9739   -3.2738   -0.1667 H   0  0  0  0  0  0  0  0  0  0  0  0
    1.8913   -3.6535   -1.4984 H   0  0  0  0  0  0  0  0  0  0  0  0
    8.3801   -1.1768    3.0075 H   0  0  0  0  0  0  0  0  0  0  0  0
    9.6599   -0.8409   -1.0806 H   0  0  0  0  0  0  0  0  0  0  0  0
   10.1711   -1.3287    1.2973 H   0  0  0  0  0  0  0  0  0  0  0  0
  1 40  1  0  0  0  0
  2 42  1  0  0  0  0
  3 25  1  0  0  0  0
  3 69  1  0  0  0  0
  4 21  2  0  0  0  0
  5 26  1  0  0  0  0
  5 71  1  0  0  0  0
  6 27  1  0  0  0  0
  6 70  1  0  0  0  0
  7 29  2  0  0  0  0
  8 33  1  0  0  0  0
  8 74  1  0  0  0  0
  9 34  1  0  0  0  0
  9 75  1  0  0  0  0
 10 36  1  0  0  0  0
 10 44  1  0  0  0  0
 11 14  1  0  0  0  0
 11 15  1  0  0  0  0
 11 16  1  0  0  0  0
 12 17  1  0  0  0  0
 12 19  1  0  0  0  0
 12 29  1  0  0  0  0
 13 20  1  0  0  0  0
 13 21  1  0  0  0  0
 13 24  1  0  0  0  0
 14 17  1  0  0  0  0
 14 22  2  0  0  0  0
 15 18  1  0  0  0  0
 15 48  1  0  0  0  0
 15 49  1  0  0  0  0
 16 21  1  0  0  0  0
 16 23  2  0  0  0  0
 17 50  1  0  0  0  0
 17 51  1  0  0  0  0
 18 19  1  0  0  0  0
 18 28  2  0  0  0  0
 19 30  2  0  0  0  0
 20 25  1  0  0  0  0
 20 52  1  0  0  0  0
 20 53  1  0  0  0  0
 22 23  1  0  0  0  0
 22 54  1  0  0  0  0
 23 55  1  0  0  0  0
 24 26  1  0  0  0  0
 24 56  1  0  0  0  0
 24 57  1  0  0  0  0
 25 27  1  0  0  0  0
 25 58  1  0  0  0  0
 26 34  1  0  0  0  0
 26 59  1  0  0  0  0
 27 33  1  0  0  0  0
 27 60  1  0  0  0  0
 28 31  1  0  0  0  0
 28 61  1  0  0  0  0
 29 35  1  0  0  0  0
 30 32  1  0  0  0  0
 30 62  1  0  0  0  0
 31 32  2  0  0  0  0
 31 63  1  0  0  0  0
 32 64  1  0  0  0  0
 33 65  1  0  0  0  0
 33 66  1  0  0  0  0
 34 67  1  0  0  0  0
 34 68  1  0  0  0  0
 35 36  2  0  0  0  0
 35 37  1  0  0  0  0
 36 38  1  0  0  0  0
 37 40  2  0  0  0  0
 37 72  1  0  0  0  0
 38 39  2  0  0  0  0
 38 73  1  0  0  0  0
 39 40  1  0  0  0  0
 39 41  1  0  0  0  0
 41 42  1  0  0  0  0
 41 43  2  0  0  0  0
 42 45  2  0  0  0  0
 43 46  1  0  0  0  0
 43 76  1  0  0  0  0
 44 77  1  0  0  0  0
 44 78  1  0  0  0  0
 44 79  1  0  0  0  0
 45 47  1  0  0  0  0
 45 80  1  0  0  0  0
 46 47  2  0  0  0  0
 46 81  1  0  0  0  0
 47 82  1  0  0  0  0
M  END
> <PUBCHEM_COMPOUND_CID>
10168662

> <PUBCHEM_CONFORMER_RMSD>
1.4

> <PUBCHEM_CONFORMER_DIVERSEORDER>
8
53
59
41
72
61
35
20
18
51
40
37
39
67
47
32
26
64
42
25
9
19
50
44
60
56
34
70
24
30
28
31
22
63
2
16
46
17
71
69
29
27
54
52
62
1
7
12
36
11
4
3
57
65
21
68
48
10
43
5
33
13
23
45
15
38
55
58
49
66
6
14

> <PUBCHEM_MMFF94_PARTIAL_CHARGES>
62
1 -0.18
10 -0.36
11 0.05
12 -0.48
13 -0.66
14 -0.33
15 0.4
16 -0.24
17 0.48
18 -0.14
19 0.12
2 -0.19
20 0.3
21 0.71
22 -0.15
23 -0.15
24 0.3
25 0.28
26 0.28
27 0.28
28 -0.15
29 0.54
3 -0.68
30 -0.15
31 -0.15
32 -0.15
33 0.28
34 0.28
35 0.09
36 0.08
37 -0.15
38 -0.15
4 -0.57
40 0.18
42 0.19
43 -0.15
44 0.28
45 -0.15
46 -0.15
47 -0.15
5 -0.68
54 0.15
55 0.15
6 -0.68
61 0.15
62 0.15
63 0.15
64 0.15
69 0.4
7 -0.57
70 0.4
71 0.4
72 0.15
73 0.15
74 0.4
75 0.4
76 0.15
8 -0.68
80 0.15
81 0.15
82 0.15
9 -0.68

> <PUBCHEM_EFFECTIVE_ROTOR_COUNT>
13.6

> <PUBCHEM_PHARMACOPHORE_FEATURES>
19
1 10 acceptor
1 11 cation
1 3 acceptor
1 3 donor
1 4 acceptor
1 5 acceptor
1 5 donor
1 6 acceptor
1 6 donor
1 7 acceptor
1 8 acceptor
1 8 donor
1 9 acceptor
1 9 donor
5 11 14 16 22 23 rings
6 18 19 28 30 31 32 rings
6 35 36 37 38 39 40 rings
6 41 42 43 45 46 47 rings
7 11 12 14 15 17 18 19 rings

> <PUBCHEM_HEAVY_ATOM_COUNT>
47

> <PUBCHEM_ATOM_DEF_STEREO_COUNT>
0

> <PUBCHEM_ATOM_UDEF_STEREO_COUNT>
3

> <PUBCHEM_BOND_DEF_STEREO_COUNT>
0

> <PUBCHEM_BOND_UDEF_STEREO_COUNT>
0

> <PUBCHEM_ISOTOPIC_ATOM_COUNT>
0

> <PUBCHEM_COMPONENT_COUNT>
1

> <PUBCHEM_CACTVS_TAUTO_COUNT>
1

> <PUBCHEM_CONFORMER_ID>
009B295600000008

> <PUBCHEM_MMFF94_ENERGY>
160.6458

> <PUBCHEM_FEATURE_SELFOVERLAP>
96.504

> <PUBCHEM_SHAPE_FINGERPRINT>
11007060 377 11023836071465444936
11828532 37 17169854373656368347
13782708 43 18408885144857334656
13811026 1 18259991461270716417
14114207 22 18270968930198244871
14279260 333 17676480606060668091
14294032 229 17751358387627693101
15145343 4 17346019170298723506
15183329 4 12973879343135380370
15274700 242 18041831810137634315
15276724 80 18260264110078908993
15444296 9 18410577262222099999
20511986 3 18272369823147596050
469060 322 18412821409089911438
5080951 261 18261099734663743236
57527452 28 18342745118046893435
6081469 158 17240203223297545066

> <PUBCHEM_SHAPE_MULTIPOLES>
899.94
22.07
4.57
2.65
23.84
0.38
0.1
-7.47
9.74
-5.01
-4.58
-1.76
-0.79
-0.79

> <PUBCHEM_SHAPE_SELFOVERLAP>
1939.402

> <PUBCHEM_SHAPE_VOLUME>
495.9

> <PUBCHEM_COORDINATE_TYPE>
2
5
10

$$$$
