12921524
  -OEChem-02172602543D

 32 31  0     0  0  0  0  0  0999 V2000
   -5.0695   -1.1534   -0.9064 Br  0  0  0  0  0  0  0  0  0  0  0  0
   -1.4295   -0.0127    1.4716 S   0  0  0  0  0  0  0  0  0  0  0  0
    0.5163   -0.0042    0.6779 P   0  0  0  0  0  0  0  0  0  0  0  0
    0.5627    0.9858   -0.6113 O   0  0  0  0  0  0  0  0  0  0  0  0
    0.8805   -1.4518    0.0337 O   0  0  0  0  0  0  0  0  0  0  0  0
    1.5087    0.3965    1.7387 O   0  0  0  0  0  0  0  0  0  0  0  0
    0.2883    2.3638   -0.4240 C   0  0  0  0  0  0  0  0  0  0  0  0
    2.1241   -1.6463   -0.6173 C   0  0  0  0  0  0  0  0  0  0  0  0
    1.2997    2.9477    0.5507 C   0  0  0  0  0  0  0  0  0  0  0  0
    0.3264    3.0696   -1.7709 C   0  0  0  0  0  0  0  0  0  0  0  0
    3.2520   -1.3851    0.3692 C   0  0  0  0  0  0  0  0  0  0  0  0
    2.1792   -3.0584   -1.1802 C   0  0  0  0  0  0  0  0  0  0  0  0
   -2.4978   -0.5050    0.1043 C   0  0  0  0  0  0  0  0  0  0  0  0
   -3.9411   -0.5462    0.5640 C   0  0  0  0  0  0  0  0  0  0  0  0
   -0.7212    2.4784   -0.0157 H   0  0  0  0  0  0  0  0  0  0  0  0
    2.1987   -0.9415   -1.4530 H   0  0  0  0  0  0  0  0  0  0  0  0
    2.3121    2.5789    0.3555 H   0  0  0  0  0  0  0  0  0  0  0  0
    1.0375    2.7119    1.5858 H   0  0  0  0  0  0  0  0  0  0  0  0
    1.3140    4.0414    0.4873 H   0  0  0  0  0  0  0  0  0  0  0  0
    1.3131    2.9684   -2.2362 H   0  0  0  0  0  0  0  0  0  0  0  0
   -0.3941    2.6150   -2.4595 H   0  0  0  0  0  0  0  0  0  0  0  0
    0.0917    4.1338   -1.6724 H   0  0  0  0  0  0  0  0  0  0  0  0
    4.1983   -1.7913   -0.0045 H   0  0  0  0  0  0  0  0  0  0  0  0
    3.4173   -0.3130    0.5078 H   0  0  0  0  0  0  0  0  0  0  0  0
    3.0468   -1.8321    1.3476 H   0  0  0  0  0  0  0  0  0  0  0  0
    3.1152   -3.2391   -1.7173 H   0  0  0  0  0  0  0  0  0  0  0  0
    1.3434   -3.2273   -1.8677 H   0  0  0  0  0  0  0  0  0  0  0  0
    2.0833   -3.8011   -0.3804 H   0  0  0  0  0  0  0  0  0  0  0  0
   -2.3703    0.2063   -0.7186 H   0  0  0  0  0  0  0  0  0  0  0  0
   -2.1722   -1.4870   -0.2552 H   0  0  0  0  0  0  0  0  0  0  0  0
   -4.1033   -1.2579    1.3790 H   0  0  0  0  0  0  0  0  0  0  0  0
   -4.3185    0.4394    0.8518 H   0  0  0  0  0  0  0  0  0  0  0  0
  1 14  1  0  0  0  0
  2  3  1  0  0  0  0
  2 13  1  0  0  0  0
  3  4  1  0  0  0  0
  3  5  1  0  0  0  0
  3  6  2  0  0  0  0
  4  7  1  0  0  0  0
  5  8  1  0  0  0  0
  7  9  1  0  0  0  0
  7 10  1  0  0  0  0
  7 15  1  0  0  0  0
  8 11  1  0  0  0  0
  8 12  1  0  0  0  0
  8 16  1  0  0  0  0
  9 17  1  0  0  0  0
  9 18  1  0  0  0  0
  9 19  1  0  0  0  0
 10 20  1  0  0  0  0
 10 21  1  0  0  0  0
 10 22  1  0  0  0  0
 11 23  1  0  0  0  0
 11 24  1  0  0  0  0
 11 25  1  0  0  0  0
 12 26  1  0  0  0  0
 12 27  1  0  0  0  0
 12 28  1  0  0  0  0
 13 14  1  0  0  0  0
 13 29  1  0  0  0  0
 13 30  1  0  0  0  0
 14 31  1  0  0  0  0
 14 32  1  0  0  0  0
M  END
> <PUBCHEM_COMPOUND_CID>
12921524

> <PUBCHEM_CONFORMER_RMSD>
0.8

> <PUBCHEM_CONFORMER_DIVERSEORDER>
1
41
57
45
50
48
2
40
34
70
47
26
29
19
60
44
43
17
37
42
33
68
52
55
59
53
32
71
36
12
65
8
39
58
46
66
28
73
49
61
62
9
54
67
3
14
27
11
69
4
22
56
72
15
13
23
31
20
63
21
64
24
25
35
51
6
16
5
10
7
30
18
38

> <PUBCHEM_MMFF94_PARTIAL_CHARGES>
10
1 -0.23
13 0.23
14 0.23
2 -0.48
3 1.49
4 -0.55
5 -0.55
6 -0.7
7 0.28
8 0.28

> <PUBCHEM_EFFECTIVE_ROTOR_COUNT>
7

> <PUBCHEM_PHARMACOPHORE_FEATURES>
4
1 1 hydrophobe
1 6 acceptor
3 7 9 10 hydrophobe
3 8 11 12 hydrophobe

> <PUBCHEM_HEAVY_ATOM_COUNT>
14

> <PUBCHEM_ATOM_DEF_STEREO_COUNT>
0

> <PUBCHEM_ATOM_UDEF_STEREO_COUNT>
0

> <PUBCHEM_BOND_DEF_STEREO_COUNT>
0

> <PUBCHEM_BOND_UDEF_STEREO_COUNT>
0

> <PUBCHEM_ISOTOPIC_ATOM_COUNT>
0

> <PUBCHEM_COMPONENT_COUNT>
1

> <PUBCHEM_CACTVS_TAUTO_COUNT>
1

> <PUBCHEM_CONFORMER_ID>
00C52AB400000001

> <PUBCHEM_MMFF94_ENERGY>
14.907

> <PUBCHEM_FEATURE_SELFOVERLAP>
20.297

> <PUBCHEM_SHAPE_FINGERPRINT>
116883 192 18337384934115507981
12617007 42 18259985959702245493
13681431 1 18263103096230473928
14004458 79 17899136014052654093
14817 1 8207187374673919328
17041 50 18186517696736026903
17539 30 17903355909688977933
20233049 118 17095514076655385755
20339313 130 18336841826668076379
20645477 70 18264200482625054347
20671657 53 18335137562344416099
20711985 344 17828777135520422554
21524375 3 17322960413524213241
21947302 44 17750791245874965465
22620623 9 17905339432918346151
23402539 116 18189054196535575034
23418878 81 17975721667662243408
23419403 2 17969756688612478204
23526113 38 17604164699799278075
23532345 88 18342454885399763727
23557571 272 18192434069894384098
23598291 2 18270696294084120635
3060560 45 18267024053563838828
4175511 335 18058443386745264937
7364860 26 18340490087769045585
81228 2 17829348898889062544

> <PUBCHEM_SHAPE_MULTIPOLES>
284.15
6.52
3.68
1.52
11.4
1.7
0.01
-4.92
1.09
-3.89
2.02
-0.05
0.44
0.21

> <PUBCHEM_SHAPE_SELFOVERLAP>
483.477

> <PUBCHEM_SHAPE_VOLUME>
194.8

> <PUBCHEM_COORDINATE_TYPE>
2
5
10

$$$$
