10141659
  -OEChem-02172602543D

 67 70  0     0  0  0  0  0  0999 V2000
    2.4599    3.6861   -0.0524 O   0  0  0  0  0  0  0  0  0  0  0  0
   -6.0037    1.9025   -0.4980 O   0  0  0  0  0  0  0  0  0  0  0  0
    8.4763   -0.6143   -0.6732 O   0  0  0  0  0  0  0  0  0  0  0  0
    7.8415   -2.4688    0.5338 O   0  0  0  0  0  0  0  0  0  0  0  0
    4.5005    2.4960   -0.0542 N   0  0  0  0  0  0  0  0  0  0  0  0
    0.2739    1.9063    0.0135 N   0  0  0  0  0  0  0  0  0  0  0  0
   -5.8089   -0.0854    0.7167 N   0  0  0  0  0  0  0  0  0  0  0  0
   -9.1200   -1.4983   -0.2951 N   0  0  0  0  0  0  0  0  0  0  0  0
    2.5780    1.2555    0.0096 C   0  0  0  0  0  0  0  0  0  0  0  0
    3.7117    0.3369    0.0162 C   0  0  0  0  0  0  0  0  0  0  0  0
    4.8538    1.1423   -0.0236 C   0  0  0  0  0  0  0  0  0  0  0  0
    1.2750    0.9689    0.0378 C   0  0  0  0  0  0  0  0  0  0  0  0
    3.1115    2.6581   -0.0362 C   0  0  0  0  0  0  0  0  0  0  0  0
   -7.2412   -0.3670    0.7865 C   0  0  0  0  0  0  0  0  0  0  0  0
    3.8204   -1.0404    0.0511 C   0  0  0  0  0  0  0  0  0  0  0  0
    0.8438   -0.4483    0.0824 C   0  0  0  0  0  0  0  0  0  0  0  0
    6.1303    0.6153   -0.0301 C   0  0  0  0  0  0  0  0  0  0  0  0
   -7.6964   -1.2052   -0.3989 C   0  0  0  0  0  0  0  0  0  0  0  0
   -1.1053    1.6947    0.0264 C   0  0  0  0  0  0  0  0  0  0  0  0
    6.2482   -0.7756    0.0052 C   0  0  0  0  0  0  0  0  0  0  0  0
    5.1046   -1.5955    0.0453 C   0  0  0  0  0  0  0  0  0  0  0  0
   -3.8628    1.2730    0.0515 C   0  0  0  0  0  0  0  0  0  0  0  0
   -5.3003    1.0529    0.0646 C   0  0  0  0  0  0  0  0  0  0  0  0
   -1.8002    1.5531   -1.1750 C   0  0  0  0  0  0  0  0  0  0  0  0
   -1.7893    1.6253    1.2400 C   0  0  0  0  0  0  0  0  0  0  0  0
   -3.1791    1.3423   -1.1624 C   0  0  0  0  0  0  0  0  0  0  0  0
   -3.1679    1.4145    1.2526 C   0  0  0  0  0  0  0  0  0  0  0  0
    0.6599   -1.0830    1.3109 C   0  0  0  0  0  0  0  0  0  0  0  0
    0.6217   -1.1476   -1.1040 C   0  0  0  0  0  0  0  0  0  0  0  0
   -4.9424   -1.0592    1.3656 C   0  0  0  0  0  0  0  0  0  0  0  0
   -9.9170   -0.3467   -0.7221 C   0  0  0  0  0  0  0  0  0  0  0  0
   -9.4641   -2.6768   -1.0932 C   0  0  0  0  0  0  0  0  0  0  0  0
    7.5687   -1.3860   -0.0006 C   0  0  0  0  0  0  0  0  0  0  0  0
    0.2542   -2.4169    1.3532 C   0  0  0  0  0  0  0  0  0  0  0  0
    0.2160   -2.4816   -1.0616 C   0  0  0  0  0  0  0  0  0  0  0  0
    0.0322   -3.1161    0.1669 C   0  0  0  0  0  0  0  0  0  0  0  0
    9.8167   -1.1111   -0.7496 C   0  0  0  0  0  0  0  0  0  0  0  0
    5.1763    3.2503   -0.0850 H   0  0  0  0  0  0  0  0  0  0  0  0
   -7.4569   -0.8628    1.7409 H   0  0  0  0  0  0  0  0  0  0  0  0
   -7.7582    0.5982    0.7990 H   0  0  0  0  0  0  0  0  0  0  0  0
    2.9948   -1.7305    0.0819 H   0  0  0  0  0  0  0  0  0  0  0  0
    6.9924    1.2733   -0.0501 H   0  0  0  0  0  0  0  0  0  0  0  0
    0.5562    2.8792   -0.0289 H   0  0  0  0  0  0  0  0  0  0  0  0
   -7.4453   -0.7178   -1.3505 H   0  0  0  0  0  0  0  0  0  0  0  0
   -7.1209   -2.1404   -0.3813 H   0  0  0  0  0  0  0  0  0  0  0  0
    5.2055   -2.6785    0.0692 H   0  0  0  0  0  0  0  0  0  0  0  0
   -1.2781    1.6061   -2.1270 H   0  0  0  0  0  0  0  0  0  0  0  0
   -1.2593    1.7399    2.1822 H   0  0  0  0  0  0  0  0  0  0  0  0
   -3.7086    1.2312   -2.1051 H   0  0  0  0  0  0  0  0  0  0  0  0
   -3.6857    1.3852    2.2077 H   0  0  0  0  0  0  0  0  0  0  0  0
    0.8289   -0.5514    2.2443 H   0  0  0  0  0  0  0  0  0  0  0  0
    0.7611   -0.6673   -2.0694 H   0  0  0  0  0  0  0  0  0  0  0  0
   -4.8504   -0.7951    2.4230 H   0  0  0  0  0  0  0  0  0  0  0  0
   -3.9544   -1.1127    0.9040 H   0  0  0  0  0  0  0  0  0  0  0  0
   -5.3879   -2.0562    1.2904 H   0  0  0  0  0  0  0  0  0  0  0  0
   -9.7492    0.5239   -0.0809 H   0  0  0  0  0  0  0  0  0  0  0  0
  -10.9863   -0.5754   -0.6435 H   0  0  0  0  0  0  0  0  0  0  0  0
   -9.7086   -0.0592   -1.7593 H   0  0  0  0  0  0  0  0  0  0  0  0
   -8.9196   -3.5581   -0.7360 H   0  0  0  0  0  0  0  0  0  0  0  0
   -9.2368   -2.5358   -2.1561 H   0  0  0  0  0  0  0  0  0  0  0  0
  -10.5303   -2.9102   -0.9958 H   0  0  0  0  0  0  0  0  0  0  0  0
    0.1110   -2.9109    2.3097 H   0  0  0  0  0  0  0  0  0  0  0  0
    0.0432   -3.0262   -1.9852 H   0  0  0  0  0  0  0  0  0  0  0  0
   -0.2836   -4.1547    0.1998 H   0  0  0  0  0  0  0  0  0  0  0  0
   10.2387   -1.2129    0.2546 H   0  0  0  0  0  0  0  0  0  0  0  0
    9.8338   -2.0705   -1.2752 H   0  0  0  0  0  0  0  0  0  0  0  0
   10.4156   -0.3902   -1.3122 H   0  0  0  0  0  0  0  0  0  0  0  0
  1 13  2  0  0  0  0
  2 23  2  0  0  0  0
  3 33  1  0  0  0  0
  3 37  1  0  0  0  0
  4 33  2  0  0  0  0
  5 11  1  0  0  0  0
  5 13  1  0  0  0  0
  5 38  1  0  0  0  0
  6 12  1  0  0  0  0
  6 19  1  0  0  0  0
  6 43  1  0  0  0  0
  7 14  1  0  0  0  0
  7 23  1  0  0  0  0
  7 30  1  0  0  0  0
  8 18  1  0  0  0  0
  8 31  1  0  0  0  0
  8 32  1  0  0  0  0
  9 10  1  0  0  0  0
  9 12  2  0  0  0  0
  9 13  1  0  0  0  0
 10 11  2  0  0  0  0
 10 15  1  0  0  0  0
 11 17  1  0  0  0  0
 12 16  1  0  0  0  0
 14 18  1  0  0  0  0
 14 39  1  0  0  0  0
 14 40  1  0  0  0  0
 15 21  2  0  0  0  0
 15 41  1  0  0  0  0
 16 28  2  0  0  0  0
 16 29  1  0  0  0  0
 17 20  2  0  0  0  0
 17 42  1  0  0  0  0
 18 44  1  0  0  0  0
 18 45  1  0  0  0  0
 19 24  2  0  0  0  0
 19 25  1  0  0  0  0
 20 21  1  0  0  0  0
 20 33  1  0  0  0  0
 21 46  1  0  0  0  0
 22 23  1  0  0  0  0
 22 26  2  0  0  0  0
 22 27  1  0  0  0  0
 24 26  1  0  0  0  0
 24 47  1  0  0  0  0
 25 27  2  0  0  0  0
 25 48  1  0  0  0  0
 26 49  1  0  0  0  0
 27 50  1  0  0  0  0
 28 34  1  0  0  0  0
 28 51  1  0  0  0  0
 29 35  2  0  0  0  0
 29 52  1  0  0  0  0
 30 53  1  0  0  0  0
 30 54  1  0  0  0  0
 30 55  1  0  0  0  0
 31 56  1  0  0  0  0
 31 57  1  0  0  0  0
 31 58  1  0  0  0  0
 32 59  1  0  0  0  0
 32 60  1  0  0  0  0
 32 61  1  0  0  0  0
 34 36  2  0  0  0  0
 34 62  1  0  0  0  0
 35 36  1  0  0  0  0
 35 63  1  0  0  0  0
 36 64  1  0  0  0  0
 37 65  1  0  0  0  0
 37 66  1  0  0  0  0
 37 67  1  0  0  0  0
M  END
> <PUBCHEM_COMPOUND_CID>
10141659

> <PUBCHEM_CONFORMER_RMSD>
1

> <PUBCHEM_CONFORMER_DIVERSEORDER>
1
6
38
30
54
40
37
43
10
48
22
20
39
51
27
36
50
31
5
18
4
28
17
47
16
49
34
24
8
41
21
26
33
35
23
55
52
53
7
45
44
11
29
46
19
42
3
14
13
2
25
15
56
32
12
9

> <PUBCHEM_MMFF94_PARTIAL_CHARGES>
51
1 -0.57
10 0.03
11 0.12
12 0.07
13 0.62
14 0.3
15 -0.15
16 0.03
17 -0.15
18 0.27
19 0.1
2 -0.57
20 0.09
21 -0.15
22 0.09
23 0.54
24 -0.15
25 -0.15
26 -0.15
27 -0.15
28 -0.15
29 -0.15
3 -0.43
30 0.3
31 0.27
32 0.27
33 0.63
34 -0.15
35 -0.15
36 -0.15
37 0.28
38 0.37
4 -0.57
41 0.15
42 0.15
43 0.4
46 0.15
47 0.15
48 0.15
49 0.15
5 -0.55
50 0.15
51 0.15
52 0.15
6 -0.6
62 0.15
63 0.15
64 0.15
7 -0.66
8 -0.81
9 -0.01

> <PUBCHEM_EFFECTIVE_ROTOR_COUNT>
10.2

> <PUBCHEM_PHARMACOPHORE_FEATURES>
11
1 1 acceptor
1 2 acceptor
1 4 acceptor
1 5 donor
1 6 cation
1 6 donor
1 8 cation
5 5 9 10 11 13 rings
6 10 11 15 17 20 21 rings
6 16 28 29 34 35 36 rings
6 19 22 24 25 26 27 rings

> <PUBCHEM_HEAVY_ATOM_COUNT>
37

> <PUBCHEM_ATOM_DEF_STEREO_COUNT>
0

> <PUBCHEM_ATOM_UDEF_STEREO_COUNT>
0

> <PUBCHEM_BOND_DEF_STEREO_COUNT>
1

> <PUBCHEM_BOND_UDEF_STEREO_COUNT>
0

> <PUBCHEM_ISOTOPIC_ATOM_COUNT>
0

> <PUBCHEM_COMPONENT_COUNT>
1

> <PUBCHEM_CACTVS_TAUTO_COUNT>
9

> <PUBCHEM_CONFORMER_ID>
009ABFDB00000001

> <PUBCHEM_MMFF94_ENERGY>
147.5128

> <PUBCHEM_FEATURE_SELFOVERLAP>
55.91

> <PUBCHEM_SHAPE_FINGERPRINT>
10076449 9 18335147462771502132
11135926 11 18338515236553349637
11421498 54 17274550828040185857
11578080 2 17201341105036028896
13692114 37 18270392905662812435
13811026 1 18260828215426044657
14117953 113 17603302674726286879
150020 25 17967808367356859629
15198563 99 17095791163041074341
15849732 13 17749395837102335716
16067689 302 18201443507075786350
18681886 176 18412258428639384424
20028762 73 18272092677487578150
20105231 36 18131075897032849374
2026 5 18410573955577979171
20771845 140 16702304555266371199
21133410 90 16916783045923220090
21197605 99 18343303681936988926
21267235 1 18340772555616651892
21344244 246 18269839727092344278
23569917 315 18271813397519127206
23569943 247 17553218601532353206
3178227 256 18337681836224239080
335352 9 18408328791973432870
3383291 50 18412826859620181490
3633792 109 11386358223344687904
484989 97 18334867155345336482
54039377 194 18272652337516610791
6081469 158 17385720292650988519
9896288 288 17773607005172530929
9962374 69 18343295998345582132

> <PUBCHEM_SHAPE_MULTIPOLES>
718.04
27.88
3.28
1.11
20.9
0.12
-0.11
-16.69
6.02
-0.61
0.12
1.05
-0.24
-0.69

> <PUBCHEM_SHAPE_SELFOVERLAP>
1558.576

> <PUBCHEM_SHAPE_VOLUME>
393.9

> <PUBCHEM_COORDINATE_TYPE>
2
5
10

$$$$
