10091892
  -OEChem-02172602543D

 45 47  0     1  0  0  0  0  0999 V2000
    2.7669   -0.8936    2.4500 Cl  0  0  0  0  0  0  0  0  0  0  0  0
    6.7524    1.1707   -0.5065 Cl  0  0  0  0  0  0  0  0  0  0  0  0
   -3.8145   -0.1705   -2.0952 O   0  0  0  0  0  0  0  0  0  0  0  0
   -3.0292    2.2385    0.6455 O   0  0  0  0  0  0  0  0  0  0  0  0
   -2.2877    0.0543    0.2522 N   0  0  0  0  0  0  0  0  0  0  0  0
    0.3045    1.1901    0.1976 N   0  0  0  0  0  0  0  0  0  0  0  0
    1.1432   -2.3369   -0.4034 N   0  0  0  0  0  0  0  0  0  0  0  0
   -3.6212   -0.5336    0.2795 C   0  0  1  0  0  0  0  0  0  0  0  0
   -4.2963   -0.3052    1.6384 C   0  0  0  0  0  0  0  0  0  0  0  0
   -4.4651    0.0575   -0.8501 C   0  0  0  0  0  0  0  0  0  0  0  0
   -1.1548   -0.7756    0.0294 C   0  0  0  0  0  0  0  0  0  0  0  0
   -2.1367    1.4238    0.4444 C   0  0  0  0  0  0  0  0  0  0  0  0
    0.1078   -0.1805    0.0093 C   0  0  0  0  0  0  0  0  0  0  0  0
   -3.4807   -0.8562    2.8011 C   0  0  0  0  0  0  0  0  0  0  0  0
   -0.7228    1.9479    0.3996 C   0  0  0  0  0  0  0  0  0  0  0  0
   -1.2553   -2.1564   -0.1688 C   0  0  0  0  0  0  0  0  0  0  0  0
    1.2095   -1.0021   -0.2092 C   0  0  0  0  0  0  0  0  0  0  0  0
    2.5592   -0.4796   -0.2474 C   0  0  0  0  0  0  0  0  0  0  0  0
   -0.0906   -2.8800   -0.3780 C   0  0  0  0  0  0  0  0  0  0  0  0
   -0.5303    3.4248    0.6034 C   0  0  0  0  0  0  0  0  0  0  0  0
   -4.5430    0.3979   -3.1741 C   0  0  0  0  0  0  0  0  0  0  0  0
    3.3482   -0.3888    0.9011 C   0  0  0  0  0  0  0  0  0  0  0  0
    3.0715   -0.0588   -1.4762 C   0  0  0  0  0  0  0  0  0  0  0  0
    4.6441    0.1208    0.8211 C   0  0  0  0  0  0  0  0  0  0  0  0
    4.3674    0.4508   -1.5562 C   0  0  0  0  0  0  0  0  0  0  0  0
    5.1537    0.5407   -0.4076 C   0  0  0  0  0  0  0  0  0  0  0  0
   -3.6155   -1.6076    0.1144 H   0  0  0  0  0  0  0  0  0  0  0  0
   -4.5103    0.7522    1.8241 H   0  0  0  0  0  0  0  0  0  0  0  0
   -5.2717   -0.8088    1.6342 H   0  0  0  0  0  0  0  0  0  0  0  0
   -5.4437   -0.4391   -0.8680 H   0  0  0  0  0  0  0  0  0  0  0  0
   -4.6486    1.1290   -0.7217 H   0  0  0  0  0  0  0  0  0  0  0  0
   -2.5410   -0.3114    2.9320 H   0  0  0  0  0  0  0  0  0  0  0  0
   -3.2507   -1.9161    2.6527 H   0  0  0  0  0  0  0  0  0  0  0  0
   -4.0483   -0.7627    3.7327 H   0  0  0  0  0  0  0  0  0  0  0  0
   -2.1730   -2.7258   -0.1740 H   0  0  0  0  0  0  0  0  0  0  0  0
   -0.1251   -3.9532   -0.5354 H   0  0  0  0  0  0  0  0  0  0  0  0
   -1.0676    3.9754   -0.1734 H   0  0  0  0  0  0  0  0  0  0  0  0
    0.5312    3.6827    0.5488 H   0  0  0  0  0  0  0  0  0  0  0  0
   -0.9132    3.7123    1.5864 H   0  0  0  0  0  0  0  0  0  0  0  0
   -5.5427   -0.0428   -3.2376 H   0  0  0  0  0  0  0  0  0  0  0  0
   -4.0072    0.1821   -4.1023 H   0  0  0  0  0  0  0  0  0  0  0  0
   -4.6156    1.4837   -3.0584 H   0  0  0  0  0  0  0  0  0  0  0  0
    2.4736   -0.1211   -2.3828 H   0  0  0  0  0  0  0  0  0  0  0  0
    5.2595    0.1923    1.7155 H   0  0  0  0  0  0  0  0  0  0  0  0
    4.7513    0.7744   -2.5203 H   0  0  0  0  0  0  0  0  0  0  0  0
  1 22  1  0  0  0  0
  2 26  1  0  0  0  0
  3 10  1  0  0  0  0
  3 21  1  0  0  0  0
  4 12  2  0  0  0  0
  5  8  1  0  0  0  0
  5 11  1  0  0  0  0
  5 12  1  0  0  0  0
  6 13  1  0  0  0  0
  6 15  2  0  0  0  0
  7 17  2  0  0  0  0
  7 19  1  0  0  0  0
  8  9  1  0  0  0  0
  8 10  1  0  0  0  0
  8 27  1  0  0  0  0
  9 14  1  0  0  0  0
  9 28  1  0  0  0  0
  9 29  1  0  0  0  0
 10 30  1  0  0  0  0
 10 31  1  0  0  0  0
 11 13  2  0  0  0  0
 11 16  1  0  0  0  0
 12 15  1  0  0  0  0
 13 17  1  0  0  0  0
 14 32  1  0  0  0  0
 14 33  1  0  0  0  0
 14 34  1  0  0  0  0
 15 20  1  0  0  0  0
 16 19  2  0  0  0  0
 16 35  1  0  0  0  0
 17 18  1  0  0  0  0
 18 22  2  0  0  0  0
 18 23  1  0  0  0  0
 19 36  1  0  0  0  0
 20 37  1  0  0  0  0
 20 38  1  0  0  0  0
 20 39  1  0  0  0  0
 21 40  1  0  0  0  0
 21 41  1  0  0  0  0
 21 42  1  0  0  0  0
 22 24  1  0  0  0  0
 23 25  2  0  0  0  0
 23 43  1  0  0  0  0
 24 26  2  0  0  0  0
 24 44  1  0  0  0  0
 25 26  1  0  0  0  0
 25 45  1  0  0  0  0
M  END
> <PUBCHEM_COMPOUND_CID>
10091892

> <PUBCHEM_CONFORMER_RMSD>
0.8

> <PUBCHEM_CONFORMER_DIVERSEORDER>
1
6
5
3
8
7
4
9
2

> <PUBCHEM_MMFF94_PARTIAL_CHARGES>
28
1 -0.18
10 0.28
11 0.12
12 0.63
13 0.18
15 0.39
16 -0.15
17 0.31
19 0.16
2 -0.18
20 0.06
21 0.28
22 0.18
23 -0.15
24 -0.15
25 -0.15
26 0.18
3 -0.56
35 0.15
36 0.15
4 -0.57
43 0.15
44 0.15
45 0.15
5 -0.48
6 -0.63
7 -0.62
8 0.3

> <PUBCHEM_EFFECTIVE_ROTOR_COUNT>
5

> <PUBCHEM_PHARMACOPHORE_FEATURES>
8
1 14 hydrophobe
1 3 acceptor
1 4 acceptor
1 6 acceptor
1 7 acceptor
6 18 22 23 24 25 26 rings
6 5 6 11 12 13 15 rings
6 7 11 13 16 17 19 rings

> <PUBCHEM_HEAVY_ATOM_COUNT>
26

> <PUBCHEM_ATOM_DEF_STEREO_COUNT>
1

> <PUBCHEM_ATOM_UDEF_STEREO_COUNT>
0

> <PUBCHEM_BOND_DEF_STEREO_COUNT>
0

> <PUBCHEM_BOND_UDEF_STEREO_COUNT>
0

> <PUBCHEM_ISOTOPIC_ATOM_COUNT>
0

> <PUBCHEM_COMPONENT_COUNT>
1

> <PUBCHEM_CACTVS_TAUTO_COUNT>
2

> <PUBCHEM_CONFORMER_ID>
0099FD7400000001

> <PUBCHEM_MMFF94_ENERGY>
80.0391

> <PUBCHEM_FEATURE_SELFOVERLAP>
40.628

> <PUBCHEM_SHAPE_FINGERPRINT>
10006869 2 17768549196324758489
10165383 225 17845953874026776218
10366900 7 17775280586755892122
10498660 4 18341898429078567888
10670039 82 18337687321567486692
10906281 52 18336552595407976329
1100329 8 18267313220747660280
11552529 35 15410884168068168125
12236239 1 17967250927714688002
12390115 104 17987257554735387512
12507557 5 17676211298610379332
12553582 1 18342177773803831601
12596599 1 16773792563483973531
12596602 18 17530969116112504056
12788726 201 18341889667376932808
12969540 114 18411128169092640942
13140716 1 18196944493934657443
13224815 77 18270681961134799083
13583140 156 17385723629344614353
13631057 29 17314525913624511595
13782708 43 17203612584384849486
13911987 19 18409440406133344743
13965767 371 17682127582355443844
14787075 74 17703498991200091496
14790565 3 18269857391934214889
14955137 171 18195273180209533234
15420108 30 15599165269005142177
16752209 62 18340196410674150432
16945 1 18341896294527060747
17349148 13 18262787454799531623
17492 54 18269254855725584359
20510252 161 18200884976210506984
20511986 3 17822274821865588892
20600515 1 18057907889906587148
20715895 44 17462265955641140573
22122407 14 16009044894858605252
23402539 116 18202283606229149364
23558518 356 17759801442684342529
23559900 14 18201168732537376094
34934 24 18199470961750632001
3493558 16 16515960372130567652
3633792 109 17896580813839437790
469060 322 18196400106877609641
5104073 3 18265066738499088050

> <PUBCHEM_SHAPE_MULTIPOLES>
512.13
11.38
2.44
2.17
9.67
0.5
-0.29
3.08
-2.22
-0.8
0.47
-2.49
-0.07
0.13

> <PUBCHEM_SHAPE_SELFOVERLAP>
1083.461

> <PUBCHEM_SHAPE_VOLUME>
289.2

> <PUBCHEM_COORDINATE_TYPE>
2
5
10

$$$$
