10141658
  -OEChem-02172602543D

 67 71  0     1  0  0  0  0  0999 V2000
    2.8215    4.5536    1.7725 O   0  0  0  0  0  0  0  0  0  0  0  0
    3.1829    5.9880   -0.1300 O   0  0  0  0  0  0  0  0  0  0  0  0
    5.7900   -4.3819    1.7341 O   0  5  0  0  0  0  0  0  0  0  0  0
    5.4402   -5.4999   -0.1224 O   0  0  0  0  0  0  0  0  0  0  0  0
    0.9265    0.1441   -0.2328 N   0  0  2  0  0  0  0  0  0  0  0  0
   -2.6737    0.3577    0.0269 N   0  0  0  0  0  0  0  0  0  0  0  0
   -2.6693   -0.0535    2.2092 N   0  0  0  0  0  0  0  0  0  0  0  0
    5.1356   -4.5877    0.6835 N   0  3  0  0  0  0  0  0  0  0  0  0
   -0.2893    0.9383   -0.4624 C   0  0  0  0  0  0  0  0  0  0  0  0
   -1.4055    0.5356    0.4572 C   0  0  0  0  0  0  0  0  0  0  0  0
   -3.1606    0.5139   -1.3261 C   0  0  0  0  0  0  0  0  0  0  0  0
    2.0111    0.5960   -1.0662 C   0  0  0  0  0  0  0  0  0  0  0  0
    0.6361   -1.2790   -0.4612 C   0  0  0  0  0  0  0  0  0  0  0  0
   -3.0753   -0.7879   -2.1213 C   0  0  0  0  0  0  0  0  0  0  0  0
   -3.4082    0.0007    1.1234 C   0  0  0  0  0  0  0  0  0  0  0  0
   -1.4067    0.2841    1.7902 C   0  0  0  0  0  0  0  0  0  0  0  0
    2.3259    2.0391   -0.8531 C   0  0  0  0  0  0  0  0  0  0  0  0
   -3.5838   -0.5969   -3.5493 C   0  0  0  0  0  0  0  0  0  0  0  0
    1.8216   -2.1497   -0.1600 C   0  0  0  0  0  0  0  0  0  0  0  0
   -4.8256   -0.2792    1.0665 C   0  0  0  0  0  0  0  0  0  0  0  0
    2.4088    2.5464    0.4458 C   0  0  0  0  0  0  0  0  0  0  0  0
    2.5366    2.8760   -1.9631 C   0  0  0  0  0  0  0  0  0  0  0  0
    2.7023    3.8866    0.5923 C   0  0  0  0  0  0  0  0  0  0  0  0
   -3.4649   -1.8781   -4.3592 C   0  0  0  0  0  0  0  0  0  0  0  0
    2.1714   -3.1639   -1.0436 C   0  0  0  0  0  0  0  0  0  0  0  0
    2.5566   -1.9334    0.9994 C   0  0  0  0  0  0  0  0  0  0  0  0
    2.9086    4.7058   -0.4941 C   0  0  0  0  0  0  0  0  0  0  0  0
    2.8327    4.2298   -1.7869 C   0  0  0  0  0  0  0  0  0  0  0  0
   -5.7441    0.7504    1.2598 C   0  0  0  0  0  0  0  0  0  0  0  0
   -5.2682   -1.5771    0.8195 C   0  0  0  0  0  0  0  0  0  0  0  0
    3.2723   -3.9735   -0.7637 C   0  0  0  0  0  0  0  0  0  0  0  0
    3.6575   -2.7428    1.2794 C   0  0  0  0  0  0  0  0  0  0  0  0
    4.0154   -3.7631    0.3979 C   0  0  0  0  0  0  0  0  0  0  0  0
    3.1266    5.8842    1.3072 C   0  0  0  0  0  0  0  0  0  0  0  0
   -7.1116    0.4809    1.2061 C   0  0  0  0  0  0  0  0  0  0  0  0
   -6.6358   -1.8464    0.7657 C   0  0  0  0  0  0  0  0  0  0  0  0
   -7.5575   -0.8173    0.9590 C   0  0  0  0  0  0  0  0  0  0  0  0
   -0.5735    0.8520   -1.5166 H   0  0  0  0  0  0  0  0  0  0  0  0
   -0.1335    2.0060   -0.2711 H   0  0  0  0  0  0  0  0  0  0  0  0
   -4.1982    0.8629   -1.2801 H   0  0  0  0  0  0  0  0  0  0  0  0
   -2.6039    1.3218   -1.8115 H   0  0  0  0  0  0  0  0  0  0  0  0
    2.9467    0.0598   -0.8684 H   0  0  0  0  0  0  0  0  0  0  0  0
    1.7772    0.4194   -2.1256 H   0  0  0  0  0  0  0  0  0  0  0  0
   -0.1702   -1.6512    0.1809 H   0  0  0  0  0  0  0  0  0  0  0  0
    0.3108   -1.4339   -1.4990 H   0  0  0  0  0  0  0  0  0  0  0  0
   -2.0376   -1.1400   -2.1487 H   0  0  0  0  0  0  0  0  0  0  0  0
   -3.6561   -1.5757   -1.6291 H   0  0  0  0  0  0  0  0  0  0  0  0
   -0.5800    0.3240    2.4846 H   0  0  0  0  0  0  0  0  0  0  0  0
   -4.6322   -0.2773   -3.5311 H   0  0  0  0  0  0  0  0  0  0  0  0
   -3.0109    0.1950   -4.0459 H   0  0  0  0  0  0  0  0  0  0  0  0
    2.2634    1.9204    1.3199 H   0  0  0  0  0  0  0  0  0  0  0  0
    2.4728    2.4791   -2.9733 H   0  0  0  0  0  0  0  0  0  0  0  0
   -3.8349   -1.7191   -5.3768 H   0  0  0  0  0  0  0  0  0  0  0  0
   -2.4224   -2.2059   -4.4241 H   0  0  0  0  0  0  0  0  0  0  0  0
   -4.0512   -2.6840   -3.9063 H   0  0  0  0  0  0  0  0  0  0  0  0
    1.6001   -3.3392   -1.9510 H   0  0  0  0  0  0  0  0  0  0  0  0
    2.2864   -1.1540    1.7065 H   0  0  0  0  0  0  0  0  0  0  0  0
    2.9957    4.8785   -2.6400 H   0  0  0  0  0  0  0  0  0  0  0  0
   -5.4119    1.7675    1.4531 H   0  0  0  0  0  0  0  0  0  0  0  0
   -4.5622   -2.3904    0.6700 H   0  0  0  0  0  0  0  0  0  0  0  0
    3.5213   -4.7587   -1.4730 H   0  0  0  0  0  0  0  0  0  0  0  0
    4.2112   -2.5518    2.1951 H   0  0  0  0  0  0  0  0  0  0  0  0
    2.3573    6.5708    1.6788 H   0  0  0  0  0  0  0  0  0  0  0  0
    4.0964    6.1862    1.7191 H   0  0  0  0  0  0  0  0  0  0  0  0
   -7.8294    1.2821    1.3564 H   0  0  0  0  0  0  0  0  0  0  0  0
   -6.9832   -2.8574    0.5738 H   0  0  0  0  0  0  0  0  0  0  0  0
   -8.6223   -1.0271    0.9171 H   0  0  0  0  0  0  0  0  0  0  0  0
  1 23  1  0  0  0  0
  1 34  1  0  0  0  0
  2 27  1  0  0  0  0
  2 34  1  0  0  0  0
  3  8  1  0  0  0  0
  4  8  2  0  0  0  0
  5  9  1  0  0  0  0
  5 12  1  0  0  0  0
  5 13  1  0  0  0  0
  6 10  1  0  0  0  0
  6 11  1  0  0  0  0
  6 15  1  0  0  0  0
  7 15  2  0  0  0  0
  7 16  1  0  0  0  0
  8 33  1  0  0  0  0
  9 10  1  0  0  0  0
  9 38  1  0  0  0  0
  9 39  1  0  0  0  0
 10 16  2  0  0  0  0
 11 14  1  0  0  0  0
 11 40  1  0  0  0  0
 11 41  1  0  0  0  0
 12 17  1  0  0  0  0
 12 42  1  0  0  0  0
 12 43  1  0  0  0  0
 13 19  1  0  0  0  0
 13 44  1  0  0  0  0
 13 45  1  0  0  0  0
 14 18  1  0  0  0  0
 14 46  1  0  0  0  0
 14 47  1  0  0  0  0
 15 20  1  0  0  0  0
 16 48  1  0  0  0  0
 17 21  2  0  0  0  0
 17 22  1  0  0  0  0
 18 24  1  0  0  0  0
 18 49  1  0  0  0  0
 18 50  1  0  0  0  0
 19 25  2  0  0  0  0
 19 26  1  0  0  0  0
 20 29  2  0  0  0  0
 20 30  1  0  0  0  0
 21 23  1  0  0  0  0
 21 51  1  0  0  0  0
 22 28  2  0  0  0  0
 22 52  1  0  0  0  0
 23 27  2  0  0  0  0
 24 53  1  0  0  0  0
 24 54  1  0  0  0  0
 24 55  1  0  0  0  0
 25 31  1  0  0  0  0
 25 56  1  0  0  0  0
 26 32  2  0  0  0  0
 26 57  1  0  0  0  0
 27 28  1  0  0  0  0
 28 58  1  0  0  0  0
 29 35  1  0  0  0  0
 29 59  1  0  0  0  0
 30 36  2  0  0  0  0
 30 60  1  0  0  0  0
 31 33  2  0  0  0  0
 31 61  1  0  0  0  0
 32 33  1  0  0  0  0
 32 62  1  0  0  0  0
 34 63  1  0  0  0  0
 34 64  1  0  0  0  0
 35 37  2  0  0  0  0
 35 65  1  0  0  0  0
 36 37  1  0  0  0  0
 36 66  1  0  0  0  0
 37 67  1  0  0  0  0
M  CHG  2   3  -1   8   1
M  END
> <PUBCHEM_COMPOUND_CID>
10141658

> <PUBCHEM_CONFORMER_RMSD>
1.2

> <PUBCHEM_CONFORMER_DIVERSEORDER>
2
39
52
14
55
20
56
42
48
23
51
21
32
9
18
49
6
29
54
16
24
38
53
31
46
12
10
50
30
40
17
25
47
15
13
19
27
7
22
44
28
43
3
57
1
34
4
26
36
37
5
33
35
58
8
45
41
11

> <PUBCHEM_MMFF94_PARTIAL_CHARGES>
47
1 -0.36
10 -0.33
11 0.26
12 0.41
13 0.41
15 0.13
16 0.08
17 -0.14
19 -0.14
2 -0.36
20 0.05
21 -0.15
22 -0.15
23 0.08
25 -0.15
26 -0.15
27 0.08
28 -0.15
29 -0.15
3 -0.52
30 -0.15
31 -0.15
32 -0.15
33 0.13
34 0.56
35 -0.15
36 -0.15
37 -0.15
4 -0.52
48 0.15
5 -0.81
51 0.15
52 0.15
56 0.15
57 0.15
58 0.15
59 0.15
6 0.05
60 0.15
61 0.15
62 0.15
65 0.15
66 0.15
67 0.15
7 -0.57
8 0.91
9 0.45

> <PUBCHEM_EFFECTIVE_ROTOR_COUNT>
11.6

> <PUBCHEM_PHARMACOPHORE_FEATURES>
13
1 1 acceptor
1 2 acceptor
1 24 hydrophobe
1 3 acceptor
1 3 anion
1 4 acceptor
1 5 cation
3 6 7 15 cation
5 1 2 23 27 34 rings
5 6 7 10 15 16 rings
6 17 21 22 23 27 28 rings
6 19 25 26 31 32 33 rings
6 20 29 30 35 36 37 rings

> <PUBCHEM_HEAVY_ATOM_COUNT>
37

> <PUBCHEM_ATOM_DEF_STEREO_COUNT>
0

> <PUBCHEM_ATOM_UDEF_STEREO_COUNT>
0

> <PUBCHEM_BOND_DEF_STEREO_COUNT>
0

> <PUBCHEM_BOND_UDEF_STEREO_COUNT>
0

> <PUBCHEM_ISOTOPIC_ATOM_COUNT>
0

> <PUBCHEM_COMPONENT_COUNT>
1

> <PUBCHEM_CACTVS_TAUTO_COUNT>
1

> <PUBCHEM_CONFORMER_ID>
009ABFDA00000002

> <PUBCHEM_MMFF94_ENERGY>
99.4888

> <PUBCHEM_FEATURE_SELFOVERLAP>
66.209

> <PUBCHEM_SHAPE_FINGERPRINT>
10721379 63 18341069474388397920
11062273 23 17472121887762100160
11297750 10 18041559131454490557
11331351 85 18057036900661277554
12160290 23 17037803761061853316
12342043 65 17749398035809436907
12788726 201 17254535120678310028
12988421 55 17904748230649602300
13782708 43 17458918037329636491
14068700 675 18267592303544080387
14565420 104 18195531617272169217
15328829 1 17918000485384655494
15815584 197 16879599748509462885
16114785 44 17043166066222467944
16993427 108 17751352881442509170
18393751 57 17904482162290437241
19319366 153 18128543858612453973
20771845 65 18339368448269119131
21049683 118 17840017778321035040
21120745 212 17833571007072191500
23559900 14 17096390426415194995
244849 19 17822274783215905391
249999 5 18337398247959912993
27425 322 17840880881942838829
3627633 1 17904769873537952016
508180 173 17751649749644844193
6523845 18 18045229481598838844
6673363 416 18194973942768137518
6677587 24 16604269972425046652
6691757 9 17547546624702985136
6695519 79 17692003721791163131
6697151 62 18192129539559524471
9962374 69 18411699885940080619

> <PUBCHEM_SHAPE_MULTIPOLES>
718.04
14.8
8.37
2.71
25
2.53
3.29
-6.54
-5.8
-25.99
-1.7
3.19
-0.5
-2.51

> <PUBCHEM_SHAPE_SELFOVERLAP>
1567.179

> <PUBCHEM_SHAPE_VOLUME>
393

> <PUBCHEM_COORDINATE_TYPE>
2
5
10

$$$$
