10183153
  -OEChem-02172602543D

 56 59  0     1  0  0  0  0  0999 V2000
    4.9814    2.1110    2.0486 O   0  0  0  0  0  0  0  0  0  0  0  0
    3.8790    3.1776   -2.2725 O   0  0  0  0  0  0  0  0  0  0  0  0
    7.8360   -1.3201   -1.6244 O   0  0  0  0  0  0  0  0  0  0  0  0
    3.2520   -1.9962    1.8550 O   0  0  0  0  0  0  0  0  0  0  0  0
   -2.7291   -1.0411   -0.0084 O   0  0  0  0  0  0  0  0  0  0  0  0
    7.7491   -1.7406    0.6059 O   0  0  0  0  0  0  0  0  0  0  0  0
    5.1446    1.4402   -1.3509 N   0  0  0  0  0  0  0  0  0  0  0  0
    3.6135   -0.4376    0.1766 N   0  0  0  0  0  0  0  0  0  0  0  0
    4.2321    2.9423    0.0143 N   0  0  0  0  0  0  0  0  0  0  0  0
   -7.4650   -0.2114   -1.1046 N   0  0  0  0  0  0  0  0  0  0  0  0
    5.0535   -0.3968    0.2932 C   0  0  2  0  0  0  0  0  0  0  0  0
    5.5630    1.0033   -0.0408 C   0  0  2  0  0  0  0  0  0  0  0  0
    5.6788   -1.4648   -0.6058 C   0  0  0  0  0  0  0  0  0  0  0  0
    4.9080    2.0666    0.8286 C   0  0  0  0  0  0  0  0  0  0  0  0
    4.3581    2.5923   -1.3111 C   0  0  0  0  0  0  0  0  0  0  0  0
    2.7952   -1.2449    0.9752 C   0  0  0  0  0  0  0  0  0  0  0  0
    7.1794   -1.5187   -0.4550 C   0  0  0  0  0  0  0  0  0  0  0  0
    1.3645   -1.1923    0.7194 C   0  0  0  0  0  0  0  0  0  0  0  0
   -4.7213    0.0459   -0.7198 C   0  0  0  0  0  0  0  0  0  0  0  0
    0.7952   -0.0419    0.1733 C   0  0  0  0  0  0  0  0  0  0  0  0
    0.5614   -2.2922    1.0210 C   0  0  0  0  0  0  0  0  0  0  0  0
   -5.6100    0.4299    0.2936 C   0  0  0  0  0  0  0  0  0  0  0  0
   -3.2373    0.1628   -0.5659 C   0  0  0  0  0  0  0  0  0  0  0  0
   -1.3801   -1.0914    0.2301 C   0  0  0  0  0  0  0  0  0  0  0  0
   -6.9925    0.2821    0.0557 C   0  0  0  0  0  0  0  0  0  0  0  0
   -0.5771    0.0085   -0.0715 C   0  0  0  0  0  0  0  0  0  0  0  0
   -0.8109   -2.2419    0.7763 C   0  0  0  0  0  0  0  0  0  0  0  0
   -5.2052   -0.4630   -1.9163 C   0  0  0  0  0  0  0  0  0  0  0  0
   -6.5739   -0.5703   -2.0571 C   0  0  0  0  0  0  0  0  0  0  0  0
   -5.1518    0.9488    1.5165 C   0  0  0  0  0  0  0  0  0  0  0  0
   -7.8747    0.6638    1.0626 C   0  0  0  0  0  0  0  0  0  0  0  0
   -6.0564    1.3226    2.5061 C   0  0  0  0  0  0  0  0  0  0  0  0
   -7.4196    1.1797    2.2786 C   0  0  0  0  0  0  0  0  0  0  0  0
   -7.1400   -1.1123   -3.3267 C   0  0  0  0  0  0  0  0  0  0  0  0
    5.3111   -0.6197    1.3367 H   0  0  0  0  0  0  0  0  0  0  0  0
    6.6503    1.1020    0.0298 H   0  0  0  0  0  0  0  0  0  0  0  0
    5.2914   -2.4614   -0.3612 H   0  0  0  0  0  0  0  0  0  0  0  0
    5.4213   -1.2946   -1.6582 H   0  0  0  0  0  0  0  0  0  0  0  0
    5.4265    0.9907   -2.2163 H   0  0  0  0  0  0  0  0  0  0  0  0
    3.2073    0.0674   -0.6042 H   0  0  0  0  0  0  0  0  0  0  0  0
    3.7092    3.7445    0.3463 H   0  0  0  0  0  0  0  0  0  0  0  0
    1.3807    0.8458   -0.0490 H   0  0  0  0  0  0  0  0  0  0  0  0
    0.9859   -3.1995    1.4429 H   0  0  0  0  0  0  0  0  0  0  0  0
   -2.9835    1.0441    0.0325 H   0  0  0  0  0  0  0  0  0  0  0  0
   -2.8022    0.3196   -1.5634 H   0  0  0  0  0  0  0  0  0  0  0  0
   -0.9469    0.9340   -0.4982 H   0  0  0  0  0  0  0  0  0  0  0  0
   -1.4318   -3.1017    1.0125 H   0  0  0  0  0  0  0  0  0  0  0  0
   -4.5366   -0.7702   -2.7142 H   0  0  0  0  0  0  0  0  0  0  0  0
    8.8092   -1.3684   -1.5108 H   0  0  0  0  0  0  0  0  0  0  0  0
   -4.0980    1.0610    1.7506 H   0  0  0  0  0  0  0  0  0  0  0  0
   -8.9475    0.5617    0.9092 H   0  0  0  0  0  0  0  0  0  0  0  0
   -5.6993    1.7188    3.4518 H   0  0  0  0  0  0  0  0  0  0  0  0
   -8.1325    1.4677    3.0456 H   0  0  0  0  0  0  0  0  0  0  0  0
   -6.8440   -0.4855   -4.1739 H   0  0  0  0  0  0  0  0  0  0  0  0
   -8.2342   -1.1366   -3.2912 H   0  0  0  0  0  0  0  0  0  0  0  0
   -6.7854   -2.1340   -3.4961 H   0  0  0  0  0  0  0  0  0  0  0  0
  1 14  2  0  0  0  0
  2 15  2  0  0  0  0
  3 17  1  0  0  0  0
  3 49  1  0  0  0  0
  4 16  2  0  0  0  0
  5 23  1  0  0  0  0
  5 24  1  0  0  0  0
  6 17  2  0  0  0  0
  7 12  1  0  0  0  0
  7 15  1  0  0  0  0
  7 39  1  0  0  0  0
  8 11  1  0  0  0  0
  8 16  1  0  0  0  0
  8 40  1  0  0  0  0
  9 14  1  0  0  0  0
  9 15  1  0  0  0  0
  9 41  1  0  0  0  0
 10 25  1  0  0  0  0
 10 29  2  0  0  0  0
 11 12  1  0  0  0  0
 11 13  1  0  0  0  0
 11 35  1  0  0  0  0
 12 14  1  0  0  0  0
 12 36  1  0  0  0  0
 13 17  1  0  0  0  0
 13 37  1  0  0  0  0
 13 38  1  0  0  0  0
 16 18  1  0  0  0  0
 18 20  2  0  0  0  0
 18 21  1  0  0  0  0
 19 22  1  0  0  0  0
 19 23  1  0  0  0  0
 19 28  2  0  0  0  0
 20 26  1  0  0  0  0
 20 42  1  0  0  0  0
 21 27  2  0  0  0  0
 21 43  1  0  0  0  0
 22 25  1  0  0  0  0
 22 30  2  0  0  0  0
 23 44  1  0  0  0  0
 23 45  1  0  0  0  0
 24 26  2  0  0  0  0
 24 27  1  0  0  0  0
 25 31  2  0  0  0  0
 26 46  1  0  0  0  0
 27 47  1  0  0  0  0
 28 29  1  0  0  0  0
 28 48  1  0  0  0  0
 29 34  1  0  0  0  0
 30 32  1  0  0  0  0
 30 50  1  0  0  0  0
 31 33  1  0  0  0  0
 31 51  1  0  0  0  0
 32 33  2  0  0  0  0
 32 52  1  0  0  0  0
 33 53  1  0  0  0  0
 34 54  1  0  0  0  0
 34 55  1  0  0  0  0
 34 56  1  0  0  0  0
M  END
> <PUBCHEM_COMPOUND_CID>
10183153

> <PUBCHEM_CONFORMER_RMSD>
1.2

> <PUBCHEM_CONFORMER_DIVERSEORDER>
1
103
169
137
85
156
83
114
161
34
129
14
101
175
113
105
180
130
18
93
67
127
87
98
4
162
163
168
47
104
51
56
171
75
15
78
111
121
126
124
151
106
66
134
73
173
160
35
136
107
96
84
149
37
62
131
81
122
177
182
28
128
152
164
178
55
90
49
147
39
170
116
12
91
133
166
120
165
26
77
45
88
20
92
179
94
43
139
33
119
153
157
102
95
64
25
13
118
6
141
29
30
140
154
155
159
71
143
100
46
110
97
74
21
69
48
150
132
41
117
115
82
135
65
158
42
11
174
146
99
109
167
58
144
70
79
125
27
89
17
31
80
32
108
44
72
145
112
142
60
61
23
8
172
54
50
86
138
40
53
9
123
3
19
57
181
24
7
52
76
63
59
16
176
38
5
148
68
2
22
10
36

> <PUBCHEM_MMFF94_PARTIAL_CHARGES>
46
1 -0.57
10 -0.62
11 0.3
12 0.36
13 0.06
14 0.57
15 0.69
16 0.54
17 0.66
18 0.09
19 -0.14
2 -0.57
20 -0.15
21 -0.15
23 0.42
24 0.08
25 0.31
26 -0.15
27 -0.15
28 -0.15
29 0.17
3 -0.65
30 -0.15
31 -0.15
32 -0.15
33 -0.15
34 0.14
39 0.37
4 -0.57
40 0.37
41 0.37
42 0.15
43 0.15
46 0.15
47 0.15
48 0.15
49 0.5
5 -0.36
50 0.15
51 0.15
52 0.15
53 0.15
6 -0.57
7 -0.73
8 -0.73
9 -0.49

> <PUBCHEM_EFFECTIVE_ROTOR_COUNT>
9.6

> <PUBCHEM_PHARMACOPHORE_FEATURES>
15
1 1 acceptor
1 10 acceptor
1 2 acceptor
1 3 acceptor
1 4 acceptor
1 5 acceptor
1 6 acceptor
1 7 donor
1 8 donor
1 9 donor
3 3 6 17 anion
5 7 9 12 14 15 rings
6 10 19 22 25 28 29 rings
6 18 20 21 24 26 27 rings
6 22 25 30 31 32 33 rings

> <PUBCHEM_HEAVY_ATOM_COUNT>
34

> <PUBCHEM_ATOM_DEF_STEREO_COUNT>
0

> <PUBCHEM_ATOM_UDEF_STEREO_COUNT>
2

> <PUBCHEM_BOND_DEF_STEREO_COUNT>
0

> <PUBCHEM_BOND_UDEF_STEREO_COUNT>
0

> <PUBCHEM_ISOTOPIC_ATOM_COUNT>
0

> <PUBCHEM_COMPONENT_COUNT>
1

> <PUBCHEM_CACTVS_TAUTO_COUNT>
10

> <PUBCHEM_CONFORMER_ID>
009B61F100000001

> <PUBCHEM_MMFF94_ENERGY>
96.9621

> <PUBCHEM_FEATURE_SELFOVERLAP>
76.29

> <PUBCHEM_SHAPE_FINGERPRINT>
10 15 16443067209817581251
10319926 262 14851883682199971653
10638233 991 18413386540728638745
10675989 125 18266459991737108288
11007060 377 17895186753993149915
11115154 58 18131080303700664048
12082328 90 16917060058492070175
12098696 120 17458349680502532772
14461889 52 15791732992801689779
14856354 85 17632853132270829343
15183329 4 16917076567898086465
15357212 105 17243322666455437676
15419008 47 16950282901388973373
1577012 14 18131635603315205753
16090146 7 17988656185187332554
16096371 109 17894620465973966080
18335252 114 18186794778035280958
19309040 13 18048048647051047444
20691028 202 18409453596373737961
21033648 29 17822857610578743530
21315759 40 17917428700726022699
21779490 94 16805896207055474916
23081809 10 18130781257648819515
23522609 53 18131084727142718409
23559900 14 18336265734826950586
249057 3 18408604765013108982
2838139 119 18412827971441178377
3178227 256 17967537853068318346
335507 130 17989491814382657511
394071 54 18260551125431523597
397830 11 16733274550989263641
4339292 15 14979374250538055453
504579 68 17774708815351134301
5109719 28 17241052105723755117
5265222 85 16199576030683030479
58902169 19 18202565072668607999

> <PUBCHEM_SHAPE_MULTIPOLES>
644.56
26.88
2.63
2.32
8.61
1.26
1.01
1.63
4.56
-3.63
0.15
2.62
0.23
-5.3

> <PUBCHEM_SHAPE_SELFOVERLAP>
1408.182

> <PUBCHEM_SHAPE_VOLUME>
349

> <PUBCHEM_COORDINATE_TYPE>
2
5
10

$$$$
