13001738
  -OEChem-02172602243D

 40 44  0     1  0  0  0  0  0999 V2000
   -1.3499    0.9078   -1.2647 O   0  0  0  0  0  0  0  0  0  0  0  0
   -1.3707    3.0848    0.3547 O   0  0  0  0  0  0  0  0  0  0  0  0
   -3.6116   -0.8081   -0.5842 O   0  0  0  0  0  0  0  0  0  0  0  0
    3.3647   -1.1776   -0.4867 N   0  0  0  0  0  0  0  0  0  0  0  0
    0.9510    0.4448   -0.6783 C   0  0  1  0  0  0  0  0  0  0  0  0
    2.0625    0.7377    0.3344 C   0  0  2  0  0  0  0  0  0  0  0  0
    2.6978   -0.6285    0.7123 C   0  0  1  0  0  0  0  0  0  0  0  0
   -0.0683    1.5526   -0.9854 C   0  0  2  0  0  0  0  0  0  0  0  0
    1.6005   -0.1448   -1.9489 C   0  0  0  0  0  0  0  0  0  0  0  0
   -0.0111   -0.5338   -0.1023 C   0  0  0  0  0  0  0  0  0  0  0  0
    1.5668    1.5551    1.5334 C   0  0  0  0  0  0  0  0  0  0  0  0
    1.6864   -1.6459    1.3353 C   0  0  0  0  0  0  0  0  0  0  0  0
    2.4816   -1.3656   -1.6391 C   0  0  0  0  0  0  0  0  0  0  0  0
    0.2880   -1.5526    0.7829 C   0  0  0  0  0  0  0  0  0  0  0  0
    0.9026    2.8400    1.0526 C   0  0  0  0  0  0  0  0  0  0  0  0
   -0.2885    2.5250    0.1761 C   0  0  0  0  0  0  0  0  0  0  0  0
   -1.2931   -0.2518   -0.5278 C   0  0  0  0  0  0  0  0  0  0  0  0
   -0.7684   -2.3755    1.1732 C   0  0  0  0  0  0  0  0  0  0  0  0
   -2.3473   -1.0585   -0.1655 C   0  0  0  0  0  0  0  0  0  0  0  0
   -2.0724   -2.1380    0.6867 C   0  0  0  0  0  0  0  0  0  0  0  0
   -4.4206    0.0330    0.2413 C   0  0  0  0  0  0  0  0  0  0  0  0
    2.8323    1.3543   -0.1549 H   0  0  0  0  0  0  0  0  0  0  0  0
    3.4923   -0.4572    1.4492 H   0  0  0  0  0  0  0  0  0  0  0  0
    0.2246    2.1466   -1.8586 H   0  0  0  0  0  0  0  0  0  0  0  0
    2.2198    0.6286   -2.4227 H   0  0  0  0  0  0  0  0  0  0  0  0
    0.8437   -0.4338   -2.6896 H   0  0  0  0  0  0  0  0  0  0  0  0
    2.4146    1.8046    2.1821 H   0  0  0  0  0  0  0  0  0  0  0  0
    0.8594    0.9832    2.1446 H   0  0  0  0  0  0  0  0  0  0  0  0
    1.6263   -1.4400    2.4120 H   0  0  0  0  0  0  0  0  0  0  0  0
    2.0608   -2.6715    1.2291 H   0  0  0  0  0  0  0  0  0  0  0  0
    1.8542   -2.2513   -1.4852 H   0  0  0  0  0  0  0  0  0  0  0  0
    3.0983   -1.5860   -2.5179 H   0  0  0  0  0  0  0  0  0  0  0  0
    3.8123   -2.0640   -0.2559 H   0  0  0  0  0  0  0  0  0  0  0  0
    1.5996    3.4611    0.4799 H   0  0  0  0  0  0  0  0  0  0  0  0
    0.5608    3.4216    1.9155 H   0  0  0  0  0  0  0  0  0  0  0  0
   -0.6000   -3.1937    1.8681 H   0  0  0  0  0  0  0  0  0  0  0  0
   -2.8798   -2.7929    1.0070 H   0  0  0  0  0  0  0  0  0  0  0  0
   -5.3980    0.1428   -0.2363 H   0  0  0  0  0  0  0  0  0  0  0  0
   -3.9651    1.0232    0.3421 H   0  0  0  0  0  0  0  0  0  0  0  0
   -4.5600   -0.4202    1.2278 H   0  0  0  0  0  0  0  0  0  0  0  0
  1  8  1  0  0  0  0
  1 17  1  0  0  0  0
  2 16  2  0  0  0  0
  3 19  1  0  0  0  0
  3 21  1  0  0  0  0
  4  7  1  0  0  0  0
  4 13  1  0  0  0  0
  4 33  1  0  0  0  0
  5  6  1  0  0  0  0
  5  8  1  0  0  0  0
  5  9  1  0  0  0  0
  5 10  1  0  0  0  0
  6  7  1  0  0  0  0
  6 11  1  0  0  0  0
  6 22  1  0  0  0  0
  7 12  1  0  0  0  0
  7 23  1  0  0  0  0
  8 16  1  0  0  0  0
  8 24  1  0  0  0  0
  9 13  1  0  0  0  0
  9 25  1  0  0  0  0
  9 26  1  0  0  0  0
 10 14  2  0  0  0  0
 10 17  1  0  0  0  0
 11 15  1  0  0  0  0
 11 27  1  0  0  0  0
 11 28  1  0  0  0  0
 12 14  1  0  0  0  0
 12 29  1  0  0  0  0
 12 30  1  0  0  0  0
 13 31  1  0  0  0  0
 13 32  1  0  0  0  0
 14 18  1  0  0  0  0
 15 16  1  0  0  0  0
 15 34  1  0  0  0  0
 15 35  1  0  0  0  0
 17 19  2  0  0  0  0
 18 20  2  0  0  0  0
 18 36  1  0  0  0  0
 19 20  1  0  0  0  0
 20 37  1  0  0  0  0
 21 38  1  0  0  0  0
 21 39  1  0  0  0  0
 21 40  1  0  0  0  0
M  END
> <PUBCHEM_COMPOUND_CID>
13001738

> <PUBCHEM_CONFORMER_RMSD>
0.6

> <PUBCHEM_CONFORMER_DIVERSEORDER>
1

> <PUBCHEM_MMFF94_PARTIAL_CHARGES>
21
1 -0.36
10 -0.14
12 0.14
13 0.27
14 -0.14
15 0.06
16 0.45
17 0.08
18 -0.15
19 0.08
2 -0.57
20 -0.15
21 0.28
3 -0.36
33 0.36
36 0.15
37 0.15
4 -0.9
5 0.14
7 0.27
8 0.34

> <PUBCHEM_EFFECTIVE_ROTOR_COUNT>
2.4

> <PUBCHEM_PHARMACOPHORE_FEATURES>
10
1 1 acceptor
1 2 acceptor
1 3 acceptor
1 4 cation
1 4 donor
5 1 5 8 10 17 rings
6 10 14 17 18 19 20 rings
6 4 5 6 7 9 13 rings
6 5 6 7 10 12 14 rings
6 5 6 8 11 15 16 rings

> <PUBCHEM_HEAVY_ATOM_COUNT>
21

> <PUBCHEM_ATOM_DEF_STEREO_COUNT>
4

> <PUBCHEM_ATOM_UDEF_STEREO_COUNT>
0

> <PUBCHEM_BOND_DEF_STEREO_COUNT>
0

> <PUBCHEM_BOND_UDEF_STEREO_COUNT>
0

> <PUBCHEM_ISOTOPIC_ATOM_COUNT>
0

> <PUBCHEM_COMPONENT_COUNT>
1

> <PUBCHEM_CACTVS_TAUTO_COUNT>
3

> <PUBCHEM_CONFORMER_ID>
00C6640A00000001

> <PUBCHEM_MMFF94_ENERGY>
74.0906

> <PUBCHEM_FEATURE_SELFOVERLAP>
52.837

> <PUBCHEM_SHAPE_FINGERPRINT>
104564 63 18192157001226961219
10863032 1 18045498879142823456
10948715 1 17695901516170752856
12011746 2 17324625069785933640
12633257 1 17974258174725536344
12788726 201 18267319646256092316
13140716 1 18189046645972545507
13464514 151 18194413409403723124
13538477 17 17904482896391539532
141345 1 16476020943364771222
14142880 1 13204226070817849638
14223421 5 17688314907577601691
144361 1 17024020467642017142
14817 1 17265588652653334176
16752209 62 18189057495286314039
16945 1 17034705358479531302
20510252 161 18336824169920235754
20511035 2 17472128956946200076
20600515 1 18114172098949222188
20691752 17 17531797091059539403
20905425 154 17325777375004168498
21524375 3 16757760927757414441
21731228 192 17044290333719841904
2334 1 17900260002926156339
23419403 2 17975655581301302988
23557571 272 18199756847674554014
23559900 14 18260838146244943046
2748010 2 17826512455263638779
394222 165 16081942592920492988
576247 118 18127719134575905190
7364860 26 17979642560449694667
7832392 63 18339637945046706067
81228 2 18197237865859988304

> <PUBCHEM_SHAPE_MULTIPOLES>
409.58
4.6
3.01
1.52
3.89
1.77
0.27
-1.56
0.33
0.02
-1.1
-0.87
-0.16
0.67

> <PUBCHEM_SHAPE_SELFOVERLAP>
928.043

> <PUBCHEM_SHAPE_VOLUME>
211.8

> <PUBCHEM_COORDINATE_TYPE>
2
5
10

$$$$
