102434450
  -OEChem-02172602463D

 44 46  0     0  0  0  0  0  0999 V2000
    1.3323    2.9292    0.7077 O   0  0  0  0  0  0  0  0  0  0  0  0
    3.0973    1.5900   -1.3265 O   0  0  0  0  0  0  0  0  0  0  0  0
    2.2371   -3.4912    0.2114 O   0  0  0  0  0  0  0  0  0  0  0  0
   -0.8190    2.5976   -0.0413 O   0  0  0  0  0  0  0  0  0  0  0  0
    4.1731    0.7706    0.5364 O   0  0  0  0  0  0  0  0  0  0  0  0
    3.9715   -2.0309   -0.1865 O   0  0  0  0  0  0  0  0  0  0  0  0
    0.4467   -1.4692    0.4448 N   0  0  0  0  0  0  0  0  0  0  0  0
   -0.2519   -0.2923    0.5173 C   0  0  0  0  0  0  0  0  0  0  0  0
   -1.6766   -0.2732    0.7833 C   0  0  0  0  0  0  0  0  0  0  0  0
    0.6349    0.7389    0.2995 C   0  0  0  0  0  0  0  0  0  0  0  0
   -2.6343   -0.3214   -0.2427 C   0  0  0  0  0  0  0  0  0  0  0  0
    1.9116    0.1616    0.0894 C   0  0  0  0  0  0  0  0  0  0  0  0
    1.7660   -1.2047    0.1849 C   0  0  0  0  0  0  0  0  0  0  0  0
   -4.0092   -0.2989    0.0924 C   0  0  0  0  0  0  0  0  0  0  0  0
   -2.0686   -0.2038    2.1205 C   0  0  0  0  0  0  0  0  0  0  0  0
   -2.2579   -0.3915   -1.5939 C   0  0  0  0  0  0  0  0  0  0  0  0
   -4.3857   -0.2287    1.4436 C   0  0  0  0  0  0  0  0  0  0  0  0
   -3.4205   -0.1816    2.4500 C   0  0  0  0  0  0  0  0  0  0  0  0
    0.2900    2.1339    0.2944 C   0  0  0  0  0  0  0  0  0  0  0  0
   -4.9670   -0.3470   -0.9335 C   0  0  0  0  0  0  0  0  0  0  0  0
    3.1507    0.8387   -0.1764 C   0  0  0  0  0  0  0  0  0  0  0  0
    2.7579   -2.2265    0.0504 C   0  0  0  0  0  0  0  0  0  0  0  0
   -3.2230   -0.4386   -2.6002 C   0  0  0  0  0  0  0  0  0  0  0  0
   -4.5750   -0.4165   -2.2706 C   0  0  0  0  0  0  0  0  0  0  0  0
    1.1111    4.3431    0.7459 C   0  0  0  0  0  0  0  0  0  0  0  0
    4.2747    2.3139   -1.6995 C   0  0  0  0  0  0  0  0  0  0  0  0
    3.1338   -4.6015    0.0994 C   0  0  0  0  0  0  0  0  0  0  0  0
    0.0510   -2.3921    0.5642 H   0  0  0  0  0  0  0  0  0  0  0  0
   -1.3326   -0.1658    2.9206 H   0  0  0  0  0  0  0  0  0  0  0  0
   -1.2161   -0.4114   -1.9034 H   0  0  0  0  0  0  0  0  0  0  0  0
   -5.4367   -0.2101    1.7244 H   0  0  0  0  0  0  0  0  0  0  0  0
   -3.7252   -0.1274    3.4911 H   0  0  0  0  0  0  0  0  0  0  0  0
   -6.0294   -0.3308   -0.6992 H   0  0  0  0  0  0  0  0  0  0  0  0
   -2.9189   -0.4926   -3.6415 H   0  0  0  0  0  0  0  0  0  0  0  0
   -5.3258   -0.4532   -3.0546 H   0  0  0  0  0  0  0  0  0  0  0  0
    2.0302    4.8223    1.0927 H   0  0  0  0  0  0  0  0  0  0  0  0
    0.3034    4.5786    1.4450 H   0  0  0  0  0  0  0  0  0  0  0  0
    0.8757    4.7135   -0.2561 H   0  0  0  0  0  0  0  0  0  0  0  0
    4.5275    3.0434   -0.9246 H   0  0  0  0  0  0  0  0  0  0  0  0
    5.1055    1.6219   -1.8650 H   0  0  0  0  0  0  0  0  0  0  0  0
    4.0668    2.8461   -2.6314 H   0  0  0  0  0  0  0  0  0  0  0  0
    2.5608   -5.5196    0.2529 H   0  0  0  0  0  0  0  0  0  0  0  0
    3.9101   -4.5364    0.8672 H   0  0  0  0  0  0  0  0  0  0  0  0
    3.5794   -4.6253   -0.8993 H   0  0  0  0  0  0  0  0  0  0  0  0
  1 19  1  0  0  0  0
  1 25  1  0  0  0  0
  2 21  1  0  0  0  0
  2 26  1  0  0  0  0
  3 22  1  0  0  0  0
  3 27  1  0  0  0  0
  4 19  2  0  0  0  0
  5 21  2  0  0  0  0
  6 22  2  0  0  0  0
  7  8  1  0  0  0  0
  7 13  1  0  0  0  0
  7 28  1  0  0  0  0
  8  9  1  0  0  0  0
  8 10  2  0  0  0  0
  9 11  1  0  0  0  0
  9 15  2  0  0  0  0
 10 12  1  0  0  0  0
 10 19  1  0  0  0  0
 11 14  1  0  0  0  0
 11 16  2  0  0  0  0
 12 13  2  0  0  0  0
 12 21  1  0  0  0  0
 13 22  1  0  0  0  0
 14 17  1  0  0  0  0
 14 20  2  0  0  0  0
 15 18  1  0  0  0  0
 15 29  1  0  0  0  0
 16 23  1  0  0  0  0
 16 30  1  0  0  0  0
 17 18  2  0  0  0  0
 17 31  1  0  0  0  0
 18 32  1  0  0  0  0
 20 24  1  0  0  0  0
 20 33  1  0  0  0  0
 23 24  2  0  0  0  0
 23 34  1  0  0  0  0
 24 35  1  0  0  0  0
 25 36  1  0  0  0  0
 25 37  1  0  0  0  0
 25 38  1  0  0  0  0
 26 39  1  0  0  0  0
 26 40  1  0  0  0  0
 26 41  1  0  0  0  0
 27 42  1  0  0  0  0
 27 43  1  0  0  0  0
 27 44  1  0  0  0  0
M  END
> <PUBCHEM_COMPOUND_CID>
102434450

> <PUBCHEM_CONFORMER_RMSD>
0.8

> <PUBCHEM_CONFORMER_DIVERSEORDER>
1
46
24
35
39
45
26
14
47
38
37
13
44
15
42
40
12
16
27
19
34
41
29
18
9
36
30
31
25
43
32
21
8
23
22
2
33
17
3
11
6
10
28
7
20
5
4

> <PUBCHEM_MMFF94_PARTIAL_CHARGES>
33
1 -0.43
10 -0.09
12 -0.09
13 -0.24
15 -0.15
16 -0.15
17 -0.15
18 -0.15
19 0.81
2 -0.43
20 -0.15
21 0.81
22 0.81
23 -0.15
24 -0.15
25 0.28
26 0.28
27 0.28
28 0.27
29 0.15
3 -0.43
30 0.15
31 0.15
32 0.15
33 0.15
34 0.15
35 0.15
4 -0.57
5 -0.57
6 -0.57
7 0.03
8 -0.2
9 0.05

> <PUBCHEM_EFFECTIVE_ROTOR_COUNT>
7

> <PUBCHEM_PHARMACOPHORE_FEATURES>
8
1 4 acceptor
1 5 acceptor
1 6 acceptor
1 7 cation
1 7 donor
5 7 8 10 12 13 rings
6 11 14 16 20 23 24 rings
6 9 11 14 15 17 18 rings

> <PUBCHEM_HEAVY_ATOM_COUNT>
27

> <PUBCHEM_ATOM_DEF_STEREO_COUNT>
0

> <PUBCHEM_ATOM_UDEF_STEREO_COUNT>
0

> <PUBCHEM_BOND_DEF_STEREO_COUNT>
0

> <PUBCHEM_BOND_UDEF_STEREO_COUNT>
0

> <PUBCHEM_ISOTOPIC_ATOM_COUNT>
0

> <PUBCHEM_COMPONENT_COUNT>
1

> <PUBCHEM_CACTVS_TAUTO_COUNT>
10

> <PUBCHEM_CONFORMER_ID>
061B069200000001

> <PUBCHEM_MMFF94_ENERGY>
74.9393

> <PUBCHEM_FEATURE_SELFOVERLAP>
40.625

> <PUBCHEM_SHAPE_FINGERPRINT>
10165383 225 17755047476402058269
10369192 42 17608117530159066164
11049842 53 14707761793231453035
11578080 2 17531259356811569005
12236239 1 17775287179583367635
12553582 1 18413675707680228216
12788726 201 17472404466476821363
12969540 114 18192157216271192924
13009979 54 17561360686713991399
13134695 92 18411412899739022605
13140716 1 18052546757135154712
13583140 156 18269569367906928457
13782708 43 17603594002332211899
13911987 19 18118134777621521092
14251757 17 17458903734723881051
14790565 3 18122090811948062632
1813 80 18058455313447680295
18915476 22 18187090563194266094
20101258 96 17905620899785527050
20511986 3 17417799690921222937
20645477 70 18333448724905135746
21065201 7 15482678957125471223
21133665 82 14303574344067611183
23559900 14 16371009559787322906
23598291 2 17917158208154722155
46194498 28 17968365784754555687
463206 1 18341607144491557494
474 4 18056192720323320432
57527295 17 17897708891548049723
59025328 239 17913736566750624069
633830 44 17985848131189350240
70251023 43 18194957444463844675
7471813 234 18268983207449326102

> <PUBCHEM_SHAPE_MULTIPOLES>
515.45
9.05
3.99
1.97
3.35
0.62
-0.46
1.95
-2.81
-7.35
0.51
2.89
-0.17
-0.94

> <PUBCHEM_SHAPE_SELFOVERLAP>
1132.739

> <PUBCHEM_SHAPE_VOLUME>
280.3

> <PUBCHEM_COORDINATE_TYPE>
2
5
10

$$$$
