6440999
  -OEChem-02172602573D

 90 93  0     1  0  0  0  0  0999 V2000
   -5.2526    0.4592   -1.3457 O   0  0  0  0  0  0  0  0  0  0  0  0
    3.9150    1.3836    0.4877 O   0  0  0  0  0  0  0  0  0  0  0  0
   -3.5891    0.0264    0.2320 O   0  0  0  0  0  0  0  0  0  0  0  0
   -8.1319    0.7216    1.5712 O   0  0  0  0  0  0  0  0  0  0  0  0
   -8.9102    0.3535   -1.1882 O   0  0  0  0  0  0  0  0  0  0  0  0
    5.2543    0.0252   -0.8559 O   0  0  0  0  0  0  0  0  0  0  0  0
   -5.5857   -0.6565    2.1175 O   0  0  0  0  0  0  0  0  0  0  0  0
    3.1215    4.9578    0.3928 O   0  0  0  0  0  0  0  0  0  0  0  0
    3.8929    4.3710   -2.3305 O   0  0  0  0  0  0  0  0  0  0  0  0
    5.9800    2.2921   -2.3863 O   0  0  0  0  0  0  0  0  0  0  0  0
    1.3571    2.0716    1.3617 O   0  0  0  0  0  0  0  0  0  0  0  0
   -2.5554   -2.0858    0.4375 O   0  0  0  0  0  0  0  0  0  0  0  0
   -5.7863    0.4196   -4.0420 O   0  0  0  0  0  0  0  0  0  0  0  0
    0.1945    2.1438    3.3533 O   0  0  0  0  0  0  0  0  0  0  0  0
    1.4847   -1.3245    2.2735 O   0  0  0  0  0  0  0  0  0  0  0  0
   -0.1480   -1.2936    3.9145 O   0  0  0  0  0  0  0  0  0  0  0  0
    1.2986   -4.8460   -1.5334 O   0  0  0  0  0  0  0  0  0  0  0  0
   -7.3243    0.0522    0.6015 C   0  0  1  0  0  0  0  0  0  0  0  0
   -7.5934    0.6917   -0.7607 C   0  0  1  0  0  0  0  0  0  0  0  0
   -5.8514    0.1788    0.9910 C   0  0  2  0  0  0  0  0  0  0  0  0
    3.2932    3.6434   -0.1306 C   0  0  1  0  0  0  0  0  0  0  0  0
   -6.5824    0.2016   -1.8001 C   0  0  1  0  0  0  0  0  0  0  0  0
    4.3909    3.6623   -1.1946 C   0  0  1  0  0  0  0  0  0  0  0  0
    3.6577    2.6887    1.0088 C   0  0  1  0  0  0  0  0  0  0  0  0
   -4.9346   -0.2540   -0.1530 C   0  0  1  0  0  0  0  0  0  0  0  0
    4.7826    2.2445   -1.6108 C   0  0  2  0  0  0  0  0  0  0  0  0
    5.0366    1.3573   -0.3921 C   0  0  1  0  0  0  0  0  0  0  0  0
    2.5265    2.5637    2.0245 C   0  0  0  0  0  0  0  0  0  0  0  0
   -2.6766   -0.8956   -0.3624 C   0  0  2  0  0  0  0  0  0  0  0  0
   -0.5189    0.0459    0.6560 C   0  0  1  0  0  0  0  0  0  0  0  0
   -6.7575    0.9137   -3.1377 C   0  0  0  0  0  0  0  0  0  0  0  0
   -1.3511   -0.2031   -0.5875 C   0  0  0  0  0  0  0  0  0  0  0  0
   -0.8710    1.3896    1.3019 C   0  0  0  0  0  0  0  0  0  0  0  0
   -0.7016   -1.0942    1.6185 C   0  0  0  0  0  0  0  0  0  0  0  0
    0.2566    1.9085    2.1544 C   0  0  0  0  0  0  0  0  0  0  0  0
    5.9318   -0.7553    0.1165 C   0  0  0  0  0  0  0  0  0  0  0  0
   -1.6343   -2.0408    1.4530 C   0  0  0  0  0  0  0  0  0  0  0  0
   -0.9074    0.1047   -1.8162 C   0  0  0  0  0  0  0  0  0  0  0  0
    6.1574   -2.1647   -0.4197 C   0  0  0  0  0  0  0  0  0  0  0  0
    0.2160   -1.2473    2.7496 C   0  0  0  0  0  0  0  0  0  0  0  0
    0.4245    0.7125   -2.0899 C   0  0  0  0  0  0  0  0  0  0  0  0
    4.8618   -2.8801   -0.7163 C   0  0  0  0  0  0  0  0  0  0  0  0
    4.2429   -3.6428    0.2741 C   0  0  0  0  0  0  0  0  0  0  0  0
    4.2833   -2.7781   -1.9814 C   0  0  0  0  0  0  0  0  0  0  0  0
    2.5044   -1.4780    3.2663 C   0  0  0  0  0  0  0  0  0  0  0  0
    3.0456   -4.3036   -0.0005 C   0  0  0  0  0  0  0  0  0  0  0  0
    3.0860   -3.4388   -2.2562 C   0  0  0  0  0  0  0  0  0  0  0  0
    2.4672   -4.2017   -1.2658 C   0  0  0  0  0  0  0  0  0  0  0  0
   -7.6432   -0.9967    0.6106 H   0  0  0  0  0  0  0  0  0  0  0  0
   -7.5494    1.7839   -0.6702 H   0  0  0  0  0  0  0  0  0  0  0  0
   -5.6220    1.2061    1.2981 H   0  0  0  0  0  0  0  0  0  0  0  0
    2.3454    3.3541   -0.5993 H   0  0  0  0  0  0  0  0  0  0  0  0
   -6.6881   -0.8778   -1.9748 H   0  0  0  0  0  0  0  0  0  0  0  0
    5.2650    4.2236   -0.8441 H   0  0  0  0  0  0  0  0  0  0  0  0
    4.5474    3.0461    1.5440 H   0  0  0  0  0  0  0  0  0  0  0  0
   -5.0553   -1.3337   -0.3230 H   0  0  0  0  0  0  0  0  0  0  0  0
    4.0084    1.8041   -2.2504 H   0  0  0  0  0  0  0  0  0  0  0  0
    5.9333    1.7063    0.1393 H   0  0  0  0  0  0  0  0  0  0  0  0
    2.3094    3.5318    2.4894 H   0  0  0  0  0  0  0  0  0  0  0  0
    2.8106    1.8435    2.8009 H   0  0  0  0  0  0  0  0  0  0  0  0
   -3.0661   -1.2231   -1.3359 H   0  0  0  0  0  0  0  0  0  0  0  0
    0.5388    0.0257    0.3690 H   0  0  0  0  0  0  0  0  0  0  0  0
   -6.5948    1.9913   -3.0302 H   0  0  0  0  0  0  0  0  0  0  0  0
   -7.7518    0.7380   -3.5594 H   0  0  0  0  0  0  0  0  0  0  0  0
   -1.0854    2.1607    0.5510 H   0  0  0  0  0  0  0  0  0  0  0  0
   -1.7653    1.3114    1.9329 H   0  0  0  0  0  0  0  0  0  0  0  0
   -7.8596    1.6547    1.5994 H   0  0  0  0  0  0  0  0  0  0  0  0
   -8.9557   -0.6131   -1.2849 H   0  0  0  0  0  0  0  0  0  0  0  0
   -5.7803   -1.5751    1.8647 H   0  0  0  0  0  0  0  0  0  0  0  0
    3.9562    5.2251    0.8138 H   0  0  0  0  0  0  0  0  0  0  0  0
    3.1261    3.8845   -2.6784 H   0  0  0  0  0  0  0  0  0  0  0  0
    6.6811    2.6800   -1.8353 H   0  0  0  0  0  0  0  0  0  0  0  0
    5.3436   -0.7897    1.0412 H   0  0  0  0  0  0  0  0  0  0  0  0
    6.9056   -0.3030    0.3384 H   0  0  0  0  0  0  0  0  0  0  0  0
   -1.7462   -2.9063    2.0925 H   0  0  0  0  0  0  0  0  0  0  0  0
   -1.5207   -0.1286   -2.6827 H   0  0  0  0  0  0  0  0  0  0  0  0
   -5.9131    0.8889   -4.8841 H   0  0  0  0  0  0  0  0  0  0  0  0
    6.7539   -2.1195   -1.3399 H   0  0  0  0  0  0  0  0  0  0  0  0
    6.7443   -2.7474    0.3007 H   0  0  0  0  0  0  0  0  0  0  0  0
    0.7608    1.3986   -1.3092 H   0  0  0  0  0  0  0  0  0  0  0  0
    0.3665    1.3035   -3.0105 H   0  0  0  0  0  0  0  0  0  0  0  0
    1.1779   -0.0662   -2.2422 H   0  0  0  0  0  0  0  0  0  0  0  0
    4.6823   -3.7271    1.2645 H   0  0  0  0  0  0  0  0  0  0  0  0
    4.7547   -2.1869   -2.7621 H   0  0  0  0  0  0  0  0  0  0  0  0
    2.3930   -2.4414    3.7724 H   0  0  0  0  0  0  0  0  0  0  0  0
    3.4744   -1.4538    2.7633 H   0  0  0  0  0  0  0  0  0  0  0  0
    2.4635   -0.6548    3.9862 H   0  0  0  0  0  0  0  0  0  0  0  0
    2.5672   -4.8945    0.7758 H   0  0  0  0  0  0  0  0  0  0  0  0
    2.6449   -3.3505   -3.2454 H   0  0  0  0  0  0  0  0  0  0  0  0
    1.0421   -4.6638   -2.4537 H   0  0  0  0  0  0  0  0  0  0  0  0
  1 22  1  0  0  0  0
  1 25  1  0  0  0  0
  2 24  1  0  0  0  0
  2 27  1  0  0  0  0
  3 25  1  0  0  0  0
  3 29  1  0  0  0  0
  4 18  1  0  0  0  0
  4 67  1  0  0  0  0
  5 19  1  0  0  0  0
  5 68  1  0  0  0  0
  6 27  1  0  0  0  0
  6 36  1  0  0  0  0
  7 20  1  0  0  0  0
  7 69  1  0  0  0  0
  8 21  1  0  0  0  0
  8 70  1  0  0  0  0
  9 23  1  0  0  0  0
  9 71  1  0  0  0  0
 10 26  1  0  0  0  0
 10 72  1  0  0  0  0
 11 28  1  0  0  0  0
 11 35  1  0  0  0  0
 12 29  1  0  0  0  0
 12 37  1  0  0  0  0
 13 31  1  0  0  0  0
 13 77  1  0  0  0  0
 14 35  2  0  0  0  0
 15 40  1  0  0  0  0
 15 45  1  0  0  0  0
 16 40  2  0  0  0  0
 17 48  1  0  0  0  0
 17 90  1  0  0  0  0
 18 19  1  0  0  0  0
 18 20  1  0  0  0  0
 18 49  1  0  0  0  0
 19 22  1  0  0  0  0
 19 50  1  0  0  0  0
 20 25  1  0  0  0  0
 20 51  1  0  0  0  0
 21 23  1  0  0  0  0
 21 24  1  0  0  0  0
 21 52  1  0  0  0  0
 22 31  1  0  0  0  0
 22 53  1  0  0  0  0
 23 26  1  0  0  0  0
 23 54  1  0  0  0  0
 24 28  1  0  0  0  0
 24 55  1  0  0  0  0
 25 56  1  0  0  0  0
 26 27  1  0  0  0  0
 26 57  1  0  0  0  0
 27 58  1  0  0  0  0
 28 59  1  0  0  0  0
 28 60  1  0  0  0  0
 29 32  1  0  0  0  0
 29 61  1  0  0  0  0
 30 32  1  0  0  0  0
 30 33  1  0  0  0  0
 30 34  1  0  0  0  0
 30 62  1  0  0  0  0
 31 63  1  0  0  0  0
 31 64  1  0  0  0  0
 32 38  2  0  0  0  0
 33 35  1  0  0  0  0
 33 65  1  0  0  0  0
 33 66  1  0  0  0  0
 34 37  2  0  0  0  0
 34 40  1  0  0  0  0
 36 39  1  0  0  0  0
 36 73  1  0  0  0  0
 36 74  1  0  0  0  0
 37 75  1  0  0  0  0
 38 41  1  0  0  0  0
 38 76  1  0  0  0  0
 39 42  1  0  0  0  0
 39 78  1  0  0  0  0
 39 79  1  0  0  0  0
 41 80  1  0  0  0  0
 41 81  1  0  0  0  0
 41 82  1  0  0  0  0
 42 43  2  0  0  0  0
 42 44  1  0  0  0  0
 43 46  1  0  0  0  0
 43 83  1  0  0  0  0
 44 47  2  0  0  0  0
 44 84  1  0  0  0  0
 45 85  1  0  0  0  0
 45 86  1  0  0  0  0
 45 87  1  0  0  0  0
 46 48  2  0  0  0  0
 46 88  1  0  0  0  0
 47 48  1  0  0  0  0
 47 89  1  0  0  0  0
M  END
> <PUBCHEM_COMPOUND_CID>
6440999

> <PUBCHEM_CONFORMER_RMSD>
1.4

> <PUBCHEM_CONFORMER_DIVERSEORDER>
1
169
132
182
195
91
192
14
5
103
212
93
211
69
12
201
64
124
11
213
71
67
115
141
97
59
177
94
60
179
130
85
121
191
16
134
149
6
87
40
119
8
70
75
150
178
21
79
18
112
197
157
170
133
88
104
39
199
22
185
148
180
209
175
138
198
125
146
127
81
128
120
203
72
51
48
55
122
206
156
68
168
172
27
208
80
102
66
190
106
113
152
57
131
188
184
135
143
54
31
163
28
83
99
155
137
207
50
73
89
29
37
62
110
183
78
153
108
136
204
2
74
114
107
210
7
147
161
43
65
176
77
63
32
96
24
154
194
19
61
196
167
15
49
123
202
41
109
17
105
58
162
160
35
116
117
200
151
193
129
10
173
13
164
38
171
118
46
53
144
187
3
140
100
86
189
145
139
111
166
90
92
159
20
95
52
23
101
45
165
26
30
142
84
42
33
82
9
126
186
4
56
205
76
98
181
174
36
34
25
158
47
44

> <PUBCHEM_MMFF94_PARTIAL_CHARGES>
62
1 -0.56
10 -0.68
11 -0.43
12 -0.36
13 -0.68
14 -0.57
15 -0.43
16 -0.57
17 -0.53
18 0.28
19 0.28
2 -0.56
20 0.28
21 0.28
22 0.28
23 0.28
24 0.28
25 0.56
26 0.28
27 0.56
28 0.28
29 0.7
3 -0.56
30 0.28
31 0.28
32 -0.28
33 0.06
34 -0.12
35 0.66
36 0.28
37 -0.07
38 -0.29
39 0.14
4 -0.68
40 0.71
41 0.14
42 -0.14
43 -0.15
44 -0.15
45 0.28
46 -0.15
47 -0.15
48 0.08
5 -0.68
6 -0.56
67 0.4
68 0.4
69 0.4
7 -0.68
70 0.4
71 0.4
72 0.4
75 0.15
76 0.15
77 0.4
8 -0.68
83 0.15
84 0.15
88 0.15
89 0.15
9 -0.68
90 0.45

> <PUBCHEM_EFFECTIVE_ROTOR_COUNT>
17

> <PUBCHEM_PHARMACOPHORE_FEATURES>
27
1 1 acceptor
1 10 acceptor
1 10 donor
1 12 acceptor
1 13 acceptor
1 13 donor
1 14 acceptor
1 16 acceptor
1 17 donor
1 2 acceptor
1 3 acceptor
1 4 acceptor
1 4 donor
1 41 hydrophobe
1 5 acceptor
1 5 donor
1 6 acceptor
1 7 acceptor
1 7 donor
1 8 acceptor
1 8 donor
1 9 acceptor
1 9 donor
6 1 18 19 20 22 25 rings
6 12 29 30 32 34 37 rings
6 2 21 23 24 26 27 rings
6 42 43 44 46 47 48 rings

> <PUBCHEM_HEAVY_ATOM_COUNT>
48

> <PUBCHEM_ATOM_DEF_STEREO_COUNT>
11

> <PUBCHEM_ATOM_UDEF_STEREO_COUNT>
1

> <PUBCHEM_BOND_DEF_STEREO_COUNT>
1

> <PUBCHEM_BOND_UDEF_STEREO_COUNT>
0

> <PUBCHEM_ISOTOPIC_ATOM_COUNT>
0

> <PUBCHEM_COMPONENT_COUNT>
1

> <PUBCHEM_CACTVS_TAUTO_COUNT>
2

> <PUBCHEM_CONFORMER_ID>
0062482700000001

> <PUBCHEM_MMFF94_ENERGY>
117.5914

> <PUBCHEM_FEATURE_SELFOVERLAP>
137.211

> <PUBCHEM_SHAPE_FINGERPRINT>
10675989 125 18129943498429225792
11136256 1 18335420123515738805
11146851 88 18411135810773714822
11828532 37 17095818658767405602
15183329 4 17274832384595407641
20764821 26 17767974491425480130
21583282 1 17774993592276838094
4066623 53 18116705206916427546
59444896 2 16914288129338259835

> <PUBCHEM_SHAPE_MULTIPOLES>
888.04
19.06
5.52
3.53
39.5
0.24
0.67
-2.52
-10.65
-13.91
-1.84
1.81
-0.32
0.44

> <PUBCHEM_SHAPE_SELFOVERLAP>
1859.143

> <PUBCHEM_SHAPE_VOLUME>
493.5

> <PUBCHEM_COORDINATE_TYPE>
2
5
10

$$$$
