185262
  -OEChem-02172602253D

 42 46  0     1  0  0  0  0  0999 V2000
   -3.4807   -0.6293   -0.8302 O   0  0  0  0  0  0  0  0  0  0  0  0
    3.7182   -2.1794    0.9421 O   0  0  0  0  0  0  0  0  0  0  0  0
    4.7713   -0.9921   -0.8700 O   0  0  0  0  0  0  0  0  0  0  0  0
   -4.5987   -2.0968    0.5603 O   0  0  0  0  0  0  0  0  0  0  0  0
   -0.3356    2.5165   -0.7802 N   0  0  1  0  0  0  0  0  0  0  0  0
   -0.3567    0.7639    0.7890 C   0  0  2  0  0  0  0  0  0  0  0  0
   -1.0954    1.2838   -0.4694 C   0  0  1  0  0  0  0  0  0  0  0  0
   -0.1262    2.0636    1.5880 C   0  0  0  0  0  0  0  0  0  0  0  0
   -0.0921    3.1669    0.5265 C   0  0  0  0  0  0  0  0  0  0  0  0
   -2.5908    1.5467   -0.2240 C   0  0  0  0  0  0  0  0  0  0  0  0
    1.0202    0.2494    0.3299 C   0  0  0  0  0  0  0  0  0  0  0  0
    0.9478    2.1164   -1.4086 C   0  0  0  0  0  0  0  0  0  0  0  0
   -1.1992   -0.2162    1.5713 C   0  0  0  0  0  0  0  0  0  0  0  0
    1.6615    0.9587   -0.7323 C   0  0  0  0  0  0  0  0  0  0  0  0
   -3.2825    0.2669    0.2591 C   0  0  2  0  0  0  0  0  0  0  0  0
   -2.4938   -0.4562    1.3120 C   0  0  0  0  0  0  0  0  0  0  0  0
    1.6893   -0.8233    0.9397 C   0  0  0  0  0  0  0  0  0  0  0  0
    2.9324    0.5775   -1.1871 C   0  0  0  0  0  0  0  0  0  0  0  0
    2.9412   -1.1669    0.4666 C   0  0  0  0  0  0  0  0  0  0  0  0
    3.5441   -0.4887   -0.5657 C   0  0  0  0  0  0  0  0  0  0  0  0
    4.8749   -2.0637    0.0890 C   0  0  0  0  0  0  0  0  0  0  0  0
   -4.1579   -1.7789   -0.5359 C   0  0  0  0  0  0  0  0  0  0  0  0
   -4.2912   -2.6190   -1.7699 C   0  0  0  0  0  0  0  0  0  0  0  0
   -1.0348    0.5706   -1.3059 H   0  0  0  0  0  0  0  0  0  0  0  0
    0.8015    2.0435    2.1723 H   0  0  0  0  0  0  0  0  0  0  0  0
   -0.9484    2.2627    2.2873 H   0  0  0  0  0  0  0  0  0  0  0  0
   -0.8934    3.8899    0.7206 H   0  0  0  0  0  0  0  0  0  0  0  0
    0.8455    3.7344    0.5550 H   0  0  0  0  0  0  0  0  0  0  0  0
   -3.0540    1.8973   -1.1546 H   0  0  0  0  0  0  0  0  0  0  0  0
   -2.7361    2.3340    0.5258 H   0  0  0  0  0  0  0  0  0  0  0  0
    1.6167    2.9843   -1.4665 H   0  0  0  0  0  0  0  0  0  0  0  0
    0.7343    1.8196   -2.4438 H   0  0  0  0  0  0  0  0  0  0  0  0
   -0.7527   -0.7247    2.4216 H   0  0  0  0  0  0  0  0  0  0  0  0
   -4.2637    0.5511    0.6605 H   0  0  0  0  0  0  0  0  0  0  0  0
   -3.0054   -1.1459    1.9765 H   0  0  0  0  0  0  0  0  0  0  0  0
    1.2614   -1.3790    1.7654 H   0  0  0  0  0  0  0  0  0  0  0  0
    3.4187    1.1042   -2.0012 H   0  0  0  0  0  0  0  0  0  0  0  0
    5.0079   -3.0076   -0.4521 H   0  0  0  0  0  0  0  0  0  0  0  0
    5.7572   -1.8900    0.7157 H   0  0  0  0  0  0  0  0  0  0  0  0
   -3.2999   -2.8861   -2.1447 H   0  0  0  0  0  0  0  0  0  0  0  0
   -4.8567   -2.0740   -2.5298 H   0  0  0  0  0  0  0  0  0  0  0  0
   -4.8309   -3.5386   -1.5261 H   0  0  0  0  0  0  0  0  0  0  0  0
  1 15  1  0  0  0  0
  1 22  1  0  0  0  0
  2 19  1  0  0  0  0
  2 21  1  0  0  0  0
  3 20  1  0  0  0  0
  3 21  1  0  0  0  0
  4 22  2  0  0  0  0
  5  7  1  0  0  0  0
  5  9  1  0  0  0  0
  5 12  1  0  0  0  0
  6  7  1  0  0  0  0
  6  8  1  0  0  0  0
  6 11  1  0  0  0  0
  6 13  1  0  0  0  0
  7 10  1  0  0  0  0
  7 24  1  0  0  0  0
  8  9  1  0  0  0  0
  8 25  1  0  0  0  0
  8 26  1  0  0  0  0
  9 27  1  0  0  0  0
  9 28  1  0  0  0  0
 10 15  1  0  0  0  0
 10 29  1  0  0  0  0
 10 30  1  0  0  0  0
 11 14  1  0  0  0  0
 11 17  2  0  0  0  0
 12 14  1  0  0  0  0
 12 31  1  0  0  0  0
 12 32  1  0  0  0  0
 13 16  2  0  0  0  0
 13 33  1  0  0  0  0
 14 18  2  0  0  0  0
 15 16  1  0  0  0  0
 15 34  1  0  0  0  0
 16 35  1  0  0  0  0
 17 19  1  0  0  0  0
 17 36  1  0  0  0  0
 18 20  1  0  0  0  0
 18 37  1  0  0  0  0
 19 20  2  0  0  0  0
 21 38  1  0  0  0  0
 21 39  1  0  0  0  0
 22 23  1  0  0  0  0
 23 40  1  0  0  0  0
 23 41  1  0  0  0  0
 23 42  1  0  0  0  0
M  END
> <PUBCHEM_COMPOUND_CID>
185262

> <PUBCHEM_CONFORMER_RMSD>
0.6

> <PUBCHEM_CONFORMER_DIVERSEORDER>
1
5
2
3
6
4

> <PUBCHEM_MMFF94_PARTIAL_CHARGES>
25
1 -0.43
11 -0.14
12 0.41
13 -0.29
14 -0.14
15 0.42
16 -0.29
17 -0.15
18 -0.15
19 0.08
2 -0.36
20 0.08
21 0.56
22 0.66
23 0.06
3 -0.36
33 0.15
35 0.15
36 0.15
37 0.15
4 -0.57
5 -0.81
6 0.28
7 0.27
9 0.27

> <PUBCHEM_EFFECTIVE_ROTOR_COUNT>
3.6

> <PUBCHEM_PHARMACOPHORE_FEATURES>
8
1 2 acceptor
1 3 acceptor
1 4 acceptor
1 5 cation
5 2 3 19 20 21 rings
6 11 14 17 18 19 20 rings
6 6 7 10 13 15 16 rings
8 5 6 7 8 9 11 12 14 rings

> <PUBCHEM_HEAVY_ATOM_COUNT>
23

> <PUBCHEM_ATOM_DEF_STEREO_COUNT>
2

> <PUBCHEM_ATOM_UDEF_STEREO_COUNT>
1

> <PUBCHEM_BOND_DEF_STEREO_COUNT>
0

> <PUBCHEM_BOND_UDEF_STEREO_COUNT>
0

> <PUBCHEM_ISOTOPIC_ATOM_COUNT>
0

> <PUBCHEM_COMPONENT_COUNT>
1

> <PUBCHEM_CACTVS_TAUTO_COUNT>
1

> <PUBCHEM_CONFORMER_ID>
0002D3AE00000001

> <PUBCHEM_MMFF94_ENERGY>
67.4397

> <PUBCHEM_FEATURE_SELFOVERLAP>
40.79

> <PUBCHEM_SHAPE_FINGERPRINT>
10006869 2 10444781674691309437
10042902 136 17988644150540919038
10062212 137 18335144137696473865
10622 236 17825650180439519034
11046707 91 18343584010236305650
11552529 35 18056196874120684650
11578080 2 18341036467544369688
12553582 1 18333454235395454835
12633257 1 14979671130460227759
12788726 201 18045217133214414984
12892183 10 12535344623375244789
12969540 37 18125425660446756799
13544653 18 18410578396225419120
13583140 156 15840988828618998778
13911987 19 17246990684184988084
13965767 371 10807675405512932059
14178342 30 17131292185334440051
14251757 17 15864067680480584039
14251764 38 7923898230043804270
14576447 43 18333734636952048974
14767858 380 18116449192447579180
14787075 74 18198627833695200384
14848178 5 17845359094171282439
15163728 17 11098131102893730915
15342816 4 18342746251232431182
15534591 1 8286190635151381033
16945 1 17822586008893667209
17349148 13 17676768674350118354
17357779 13 17458350719198432430
1813 80 18271538562487048079
18186145 218 15936416645083814233
19141452 34 18268151950799330769
200 152 18188217515715872512
20291156 8 18411136948163990767
20626108 58 18201714111056986927
20775438 99 17617356820994567983
21452121 199 18410567426816024800
21452121 71 18343584061818176401
21756936 100 8358244939581879298
221357 26 17895188935546061031
23379529 103 18337399360589414863
23402539 116 18187930525969752138
23419403 2 17321210910099157848
23559900 14 18337664201626721672
238 59 17898570045122390667
25222932 49 16262908102475820127
2748010 2 17104833790531336601
2838139 119 12973876035420342399
394222 165 15049194496430346297
46194498 28 16807295945761643759
463206 1 18410294752443958275
474 4 9006792977047744847
7471813 234 18409450301827762452
76465 3 18342173392842354591
7970288 3 18341610447132127759

> <PUBCHEM_SHAPE_MULTIPOLES>
444.87
8.62
3.09
1.48
0.6
0.57
0
-9.69
-1.94
-0.95
-0.39
-0.42
-0.02
-1.35

> <PUBCHEM_SHAPE_SELFOVERLAP>
998.447

> <PUBCHEM_SHAPE_VOLUME>
234.6

> <PUBCHEM_COORDINATE_TYPE>
2
5
10

$$$$
