20485945
  -OEChem-02172602323D

 23 22  0     0  0  0  0  0  0999 V2000
   -4.7775   -0.5246   -0.1000 O   0  0  0  0  0  0  0  0  0  0  0  0
    2.3367   -0.1782   -0.2377 C   0  0  0  0  0  0  0  0  0  0  0  0
    3.7149    0.1571    0.3374 C   0  0  0  0  0  0  0  0  0  0  0  0
    1.2624    0.8574    0.1101 C   0  0  0  0  0  0  0  0  0  0  0  0
    4.7455   -0.8943   -0.0452 C   0  0  0  0  0  0  0  0  0  0  0  0
   -0.0847    0.5371   -0.4733 C   0  0  0  0  0  0  0  0  0  0  0  0
   -1.1755    0.2935    0.2687 C   0  0  0  0  0  0  0  0  0  0  0  0
   -2.4689   -0.0030   -0.3015 C   0  0  0  0  0  0  0  0  0  0  0  0
   -3.5529   -0.2450    0.4416 C   0  0  0  0  0  0  0  0  0  0  0  0
    2.0216   -1.1624    0.1326 H   0  0  0  0  0  0  0  0  0  0  0  0
    2.4143   -0.2650   -1.3293 H   0  0  0  0  0  0  0  0  0  0  0  0
    4.0424    1.1358   -0.0316 H   0  0  0  0  0  0  0  0  0  0  0  0
    3.6543    0.2245    1.4297 H   0  0  0  0  0  0  0  0  0  0  0  0
    1.5712    1.8399   -0.2678 H   0  0  0  0  0  0  0  0  0  0  0  0
    1.1957    0.9521    1.2011 H   0  0  0  0  0  0  0  0  0  0  0  0
    4.4604   -1.8801    0.3358 H   0  0  0  0  0  0  0  0  0  0  0  0
    5.7228   -0.6372    0.3754 H   0  0  0  0  0  0  0  0  0  0  0  0
    4.8511   -0.9629   -1.1326 H   0  0  0  0  0  0  0  0  0  0  0  0
   -0.1502    0.5179   -1.5589 H   0  0  0  0  0  0  0  0  0  0  0  0
   -1.1029    0.3177    1.3532 H   0  0  0  0  0  0  0  0  0  0  0  0
   -2.5513   -0.0272   -1.3851 H   0  0  0  0  0  0  0  0  0  0  0  0
   -3.5728   -0.2439    1.5227 H   0  0  0  0  0  0  0  0  0  0  0  0
   -5.3920   -0.6600    0.6424 H   0  0  0  0  0  0  0  0  0  0  0  0
  1  9  1  0  0  0  0
  1 23  1  0  0  0  0
  2  3  1  0  0  0  0
  2  4  1  0  0  0  0
  2 10  1  0  0  0  0
  2 11  1  0  0  0  0
  3  5  1  0  0  0  0
  3 12  1  0  0  0  0
  3 13  1  0  0  0  0
  4  6  1  0  0  0  0
  4 14  1  0  0  0  0
  4 15  1  0  0  0  0
  5 16  1  0  0  0  0
  5 17  1  0  0  0  0
  5 18  1  0  0  0  0
  6  7  2  0  0  0  0
  6 19  1  0  0  0  0
  7  8  1  0  0  0  0
  7 20  1  0  0  0  0
  8  9  2  0  0  0  0
  8 21  1  0  0  0  0
  9 22  1  0  0  0  0
M  END
> <PUBCHEM_COMPOUND_CID>
20485945

> <PUBCHEM_CONFORMER_RMSD>
0.6

> <PUBCHEM_CONFORMER_DIVERSEORDER>
1
24
8
4
22
7
18
11
25
19
10
5
13
17
15
21
12
23
3
16
6
14
20
2
9

> <PUBCHEM_MMFF94_PARTIAL_CHARGES>
11
1 -0.53
19 0.15
20 0.15
21 0.15
22 0.15
23 0.45
4 0.14
6 -0.29
7 -0.15
8 -0.15
9 -0.07

> <PUBCHEM_EFFECTIVE_ROTOR_COUNT>
4

> <PUBCHEM_PHARMACOPHORE_FEATURES>
3
1 1 donor
1 5 hydrophobe
4 2 3 4 6 hydrophobe

> <PUBCHEM_HEAVY_ATOM_COUNT>
9

> <PUBCHEM_ATOM_DEF_STEREO_COUNT>
0

> <PUBCHEM_ATOM_UDEF_STEREO_COUNT>
0

> <PUBCHEM_BOND_DEF_STEREO_COUNT>
2

> <PUBCHEM_BOND_UDEF_STEREO_COUNT>
0

> <PUBCHEM_ISOTOPIC_ATOM_COUNT>
0

> <PUBCHEM_COMPONENT_COUNT>
1

> <PUBCHEM_CACTVS_TAUTO_COUNT>
3

> <PUBCHEM_CONFORMER_ID>
0138973900000001

> <PUBCHEM_MMFF94_ENERGY>
1.3629

> <PUBCHEM_FEATURE_SELFOVERLAP>
15.223

> <PUBCHEM_SHAPE_FINGERPRINT>
11062470 55 11887956553301381041
114248 4 14418138421851890218
13690532 89 18408041814178336250
14123238 8 17917711318237594692
14252887 29 17846225427718684054
177051 138 18410293593018176038
17834076 25 12967129419561270842
18342897 14 12895351097108224642
20605781 2 10375876268631193827
20719005 15 18412262830943607590
20767249 213 12103840159636049595
20828058 44 17131830988427861566
21119208 17 14634870851026012698
21293036 1 14273455881475905372
22485316 2 18187361043107173578
23402539 116 17274816948799086453
23402655 69 12324232875909201819
42 15 17988927764289360521
449060 50 14620792704423569616

> <PUBCHEM_SHAPE_MULTIPOLES>
179.35
9.74
0.86
0.69
0.2
0.01
0
-3.45
-0.51
-0.36
0
0.01
0.02
0.09

> <PUBCHEM_SHAPE_SELFOVERLAP>
323.574

> <PUBCHEM_SHAPE_VOLUME>
115.1

> <PUBCHEM_COORDINATE_TYPE>
2
5
10

$$$$
