637482
  -OEChem-02172602383D

 47 51  0     1  0  0  0  0  0999 V2000
    2.8398    0.6009   -0.5646 O   0  0  0  0  0  0  0  0  0  0  0  0
    1.8968   -1.4859   -1.0115 O   0  0  0  0  0  0  0  0  0  0  0  0
    6.4638   -1.0917    0.3671 O   0  0  0  0  0  0  0  0  0  0  0  0
    5.8925    1.6221    1.1822 O   0  0  0  0  0  0  0  0  0  0  0  0
    4.0090   -2.7204    0.4106 O   0  0  0  0  0  0  0  0  0  0  0  0
    2.2221    3.2481   -0.1558 O   0  0  0  0  0  0  0  0  0  0  0  0
   -1.2612    2.5621   -0.6267 O   0  0  0  0  0  0  0  0  0  0  0  0
   -2.4510    0.6621   -0.2023 N   0  0  0  0  0  0  0  0  0  0  0  0
   -5.9585    0.0834    0.6409 N   0  0  0  0  0  0  0  0  0  0  0  0
    5.1490   -0.6063    0.6432 C   0  0  1  0  0  0  0  0  0  0  0  0
    5.1017    0.8736    0.2627 C   0  0  1  0  0  0  0  0  0  0  0  0
    4.1290   -1.4163   -0.1571 C   0  0  2  0  0  0  0  0  0  0  0  0
    3.6634    1.3958    0.2904 C   0  0  1  0  0  0  0  0  0  0  0  0
    2.7511   -0.7548   -0.1325 C   0  0  1  0  0  0  0  0  0  0  0  0
    3.5768    2.8382   -0.1986 C   0  0  0  0  0  0  0  0  0  0  0  0
   -1.5080   -0.3458   -0.3332 C   0  0  0  0  0  0  0  0  0  0  0  0
   -2.1655   -1.5653   -0.0836 C   0  0  0  0  0  0  0  0  0  0  0  0
    0.5678   -1.5053   -0.7084 C   0  0  0  0  0  0  0  0  0  0  0  0
   -3.6590    0.0946    0.1184 C   0  0  0  0  0  0  0  0  0  0  0  0
   -3.5348   -1.2760    0.2031 C   0  0  0  0  0  0  0  0  0  0  0  0
   -0.1396   -0.3011   -0.6471 C   0  0  0  0  0  0  0  0  0  0  0  0
   -1.4246   -2.7648   -0.1529 C   0  0  0  0  0  0  0  0  0  0  0  0
   -0.0631   -2.7203   -0.4652 C   0  0  0  0  0  0  0  0  0  0  0  0
   -4.8435    0.7708    0.3313 C   0  0  0  0  0  0  0  0  0  0  0  0
   -2.3321    2.0517   -0.3436 C   0  0  0  0  0  0  0  0  0  0  0  0
   -4.6870   -2.0106    0.5250 C   0  0  0  0  0  0  0  0  0  0  0  0
   -4.7738    2.2172    0.1965 C   0  0  0  0  0  0  0  0  0  0  0  0
   -3.6072    2.8121   -0.1170 C   0  0  0  0  0  0  0  0  0  0  0  0
   -5.8539   -1.2683    0.7285 C   0  0  0  0  0  0  0  0  0  0  0  0
    4.9936   -0.7284    1.7222 H   0  0  0  0  0  0  0  0  0  0  0  0
    5.5420    0.9971   -0.7355 H   0  0  0  0  0  0  0  0  0  0  0  0
    4.4753   -1.5502   -1.1888 H   0  0  0  0  0  0  0  0  0  0  0  0
    3.2516    1.3575    1.3081 H   0  0  0  0  0  0  0  0  0  0  0  0
    2.3392   -0.7907    0.8871 H   0  0  0  0  0  0  0  0  0  0  0  0
    4.1603    3.5168    0.4297 H   0  0  0  0  0  0  0  0  0  0  0  0
    3.9177    2.9199   -1.2360 H   0  0  0  0  0  0  0  0  0  0  0  0
    6.4752   -2.0388    0.5877 H   0  0  0  0  0  0  0  0  0  0  0  0
    6.0530    2.4979    0.7927 H   0  0  0  0  0  0  0  0  0  0  0  0
    3.7049   -2.6226    1.3291 H   0  0  0  0  0  0  0  0  0  0  0  0
    0.3460    0.6448   -0.8552 H   0  0  0  0  0  0  0  0  0  0  0  0
   -1.9036   -3.7219    0.0348 H   0  0  0  0  0  0  0  0  0  0  0  0
    0.5011   -3.6482   -0.5160 H   0  0  0  0  0  0  0  0  0  0  0  0
   -4.6824   -3.0907    0.6129 H   0  0  0  0  0  0  0  0  0  0  0  0
    2.1890    4.1650   -0.4780 H   0  0  0  0  0  0  0  0  0  0  0  0
   -5.6766    2.7956    0.3536 H   0  0  0  0  0  0  0  0  0  0  0  0
   -3.5497    3.8908   -0.2186 H   0  0  0  0  0  0  0  0  0  0  0  0
   -6.7807   -1.7760    0.9806 H   0  0  0  0  0  0  0  0  0  0  0  0
  1 13  1  0  0  0  0
  1 14  1  0  0  0  0
  2 14  1  0  0  0  0
  2 18  1  0  0  0  0
  3 10  1  0  0  0  0
  3 37  1  0  0  0  0
  4 11  1  0  0  0  0
  4 38  1  0  0  0  0
  5 12  1  0  0  0  0
  5 39  1  0  0  0  0
  6 15  1  0  0  0  0
  6 44  1  0  0  0  0
  7 25  2  0  0  0  0
  8 16  1  0  0  0  0
  8 19  1  0  0  0  0
  8 25  1  0  0  0  0
  9 24  2  0  0  0  0
  9 29  1  0  0  0  0
 10 11  1  0  0  0  0
 10 12  1  0  0  0  0
 10 30  1  0  0  0  0
 11 13  1  0  0  0  0
 11 31  1  0  0  0  0
 12 14  1  0  0  0  0
 12 32  1  0  0  0  0
 13 15  1  0  0  0  0
 13 33  1  0  0  0  0
 14 34  1  0  0  0  0
 15 35  1  0  0  0  0
 15 36  1  0  0  0  0
 16 17  2  0  0  0  0
 16 21  1  0  0  0  0
 17 20  1  0  0  0  0
 17 22  1  0  0  0  0
 18 21  2  0  0  0  0
 18 23  1  0  0  0  0
 19 20  2  0  0  0  0
 19 24  1  0  0  0  0
 20 26  1  0  0  0  0
 21 40  1  0  0  0  0
 22 23  2  0  0  0  0
 22 41  1  0  0  0  0
 23 42  1  0  0  0  0
 24 27  1  0  0  0  0
 25 28  1  0  0  0  0
 26 29  2  0  0  0  0
 26 43  1  0  0  0  0
 27 28  2  0  0  0  0
 27 45  1  0  0  0  0
 28 46  1  0  0  0  0
 29 47  1  0  0  0  0
M  END
> <PUBCHEM_COMPOUND_CID>
637482

> <PUBCHEM_CONFORMER_RMSD>
0.8

> <PUBCHEM_CONFORMER_DIVERSEORDER>
1
65
32
38
28
16
42
5
24
3
68
37
18
60
29
63
69
51
41
58
10
45
6
19
53
35
33
31
23
30
9
46
74
40
36
48
2
55
26
67
61
56
52
7
4
71
39
11
54
25
22
44
34
62
73
15
64
21
12
8
59
17
20
14
13
50
47
57
66
49
27
72
43
70

> <PUBCHEM_MMFF94_PARTIAL_CHARGES>
38
1 -0.56
10 0.28
11 0.28
12 0.28
13 0.28
14 0.56
15 0.28
16 -0.15
18 0.08
19 -0.15
2 -0.36
21 -0.15
22 -0.15
23 -0.15
24 0.34
25 0.56
26 -0.15
27 -0.18
28 -0.14
29 0.16
3 -0.68
37 0.4
38 0.4
39 0.4
4 -0.68
40 0.15
41 0.15
42 0.15
43 0.15
44 0.4
45 0.15
46 0.15
47 0.15
5 -0.68
6 -0.68
7 -0.57
8 0.29
9 -0.62

> <PUBCHEM_EFFECTIVE_ROTOR_COUNT>
4.2

> <PUBCHEM_PHARMACOPHORE_FEATURES>
17
1 1 acceptor
1 2 acceptor
1 3 acceptor
1 3 donor
1 4 acceptor
1 4 donor
1 5 acceptor
1 5 donor
1 6 acceptor
1 6 donor
1 7 acceptor
1 9 acceptor
5 8 16 17 19 20 rings
6 1 10 11 12 13 14 rings
6 16 17 18 21 22 23 rings
6 8 19 24 25 27 28 rings
6 9 19 20 24 26 29 rings

> <PUBCHEM_HEAVY_ATOM_COUNT>
29

> <PUBCHEM_ATOM_DEF_STEREO_COUNT>
5

> <PUBCHEM_ATOM_UDEF_STEREO_COUNT>
0

> <PUBCHEM_BOND_DEF_STEREO_COUNT>
0

> <PUBCHEM_BOND_UDEF_STEREO_COUNT>
0

> <PUBCHEM_ISOTOPIC_ATOM_COUNT>
0

> <PUBCHEM_COMPONENT_COUNT>
1

> <PUBCHEM_CACTVS_TAUTO_COUNT>
1

> <PUBCHEM_CONFORMER_ID>
0009BA2A00000001

> <PUBCHEM_MMFF94_ENERGY>
92.0744

> <PUBCHEM_FEATURE_SELFOVERLAP>
86.666

> <PUBCHEM_SHAPE_FINGERPRINT>
10 15 18337665412939056360
10319926 262 18337944606977370666
10675989 125 16533971197840071725
10939801 23 18265611173387449408
11595378 159 17822279163428555521
12107183 9 17830728760207174506
12403259 415 18271531913767189758
12422481 6 18336272284177570033
12596602 18 17458344169046297418
12633257 1 18410292497633041996
12925494 130 18268708299710499457
12978246 48 18411983589244928696
13140716 1 17833834145899507493
13402501 40 18413670205611162496
13583140 156 17822836607334480999
13785724 45 17764872395040337242
14341114 176 18410576193297462736
14466204 15 18337389314686536410
14849402 71 18189055447246894348
15196674 1 18411139121333013925
15238133 3 18334863810130055286
15320467 1 18122906696593620152
16110190 28 18409162247362425084
16760501 71 18412263973457636456
17844677 252 18411426102373454050
1813 80 16950282905878722916
20715895 44 18196934370813194249
21033648 29 17845633903511438210
21133410 127 17971463242213094084
21315763 129 18411139134318213983
21315764 268 18408038503017072549
21623110 236 18342468036711216377
21792934 111 18335146384855984857
21859007 373 17605542268021663685
23227448 37 18343018917252472671
23559900 14 18054512400379077375
338550 245 18335423495376049292
350125 39 18410859871239091892
3680242 22 18411145701170255144
392239 28 18411428314956624065
4073 2 18113625615958722330
4144715 1 18337682914087268714
474144 1 17679038224589152492
5081480 168 17200549263042251342
5104073 3 18337398141007899475
5776283 40 18121231033158596420
9981440 41 18261962860414401139

> <PUBCHEM_SHAPE_MULTIPOLES>
545.76
14.52
3.64
0.81
6.6
1.29
0.02
1.51
4.67
0.01
-0.25
0.18
-0.05
0.54

> <PUBCHEM_SHAPE_SELFOVERLAP>
1223.165

> <PUBCHEM_SHAPE_VOLUME>
286.3

> <PUBCHEM_COORDINATE_TYPE>
2
5
10

$$$$
