165219
  -OEChem-02172602323D

 84 89  0     1  0  0  0  0  0999 V2000
    3.9777   -1.4872    0.1989 O   0  0  0  0  0  0  0  0  0  0  0  0
   -3.7575    0.7305   -0.4121 O   0  0  0  0  0  0  0  0  0  0  0  0
    8.4856   -0.1843    0.3352 O   0  0  0  0  0  0  0  0  0  0  0  0
   -5.8430    1.0157   -1.5079 O   0  0  0  0  0  0  0  0  0  0  0  0
    8.5331   -2.3423   -0.4630 O   0  0  0  0  0  0  0  0  0  0  0  0
   -5.9223   -1.8438   -1.7852 O   0  0  0  0  0  0  0  0  0  0  0  0
   -6.5660   -2.2942    0.8846 O   0  0  0  0  0  0  0  0  0  0  0  0
   -7.8211    0.1960    1.4929 O   0  0  0  0  0  0  0  0  0  0  0  0
    3.2080   -0.3139   -0.1054 C   0  0  1  0  0  0  0  0  0  0  0  0
    1.8033   -0.4777    0.5438 C   0  0  1  0  0  0  0  0  0  0  0  0
    0.9453    0.8212    0.4929 C   0  0  1  0  0  0  0  0  0  0  0  0
    3.9867    0.9326    0.3987 C   0  0  2  0  0  0  0  0  0  0  0  0
   -0.4749    0.6389    1.1577 C   0  0  2  0  0  0  0  0  0  0  0  0
   -1.2027   -0.5852    0.5138 C   0  0  2  0  0  0  0  0  0  0  0  0
    1.7450    2.0080    1.0637 C   0  0  0  0  0  0  0  0  0  0  0  0
    3.0822    2.1921    0.3496 C   0  0  0  0  0  0  0  0  0  0  0  0
    5.1232    1.0888   -0.6617 C   0  0  2  0  0  0  0  0  0  0  0  0
    1.0368   -1.6787   -0.0454 C   0  0  0  0  0  0  0  0  0  0  0  0
    3.2036   -0.1379   -1.6361 C   0  0  0  0  0  0  0  0  0  0  0  0
   -0.3462   -1.8578    0.5717 C   0  0  0  0  0  0  0  0  0  0  0  0
    4.4743    0.6484   -1.9874 C   0  0  0  0  0  0  0  0  0  0  0  0
   -1.3810    1.8936    0.9806 C   0  0  0  0  0  0  0  0  0  0  0  0
   -1.6619   -0.3135   -0.9391 C   0  0  0  0  0  0  0  0  0  0  0  0
    4.5348    0.7692    1.8317 C   0  0  0  0  0  0  0  0  0  0  0  0
   -0.3510    0.4156    2.6882 C   0  0  0  0  0  0  0  0  0  0  0  0
   -1.8072    2.1581   -0.4623 C   0  0  0  0  0  0  0  0  0  0  0  0
   -2.5102    0.9484   -1.0684 C   0  0  2  0  0  0  0  0  0  0  0  0
    6.3755    0.2988   -0.4099 C   0  0  0  0  0  0  0  0  0  0  0  0
    7.5253    0.8771    0.3150 C   0  0  0  0  0  0  0  0  0  0  0  0
    6.6206   -0.9558   -0.7781 C   0  0  0  0  0  0  0  0  0  0  0  0
   -4.7164    0.1584   -1.2950 C   0  0  2  0  0  0  0  0  0  0  0  0
    7.9692   -1.2731   -0.3056 C   0  0  0  0  0  0  0  0  0  0  0  0
   -5.1665   -1.1992   -0.7586 C   0  0  1  0  0  0  0  0  0  0  0  0
   -6.0261   -1.0332    0.4956 C   0  0  1  0  0  0  0  0  0  0  0  0
   -6.6239    1.2609   -0.3338 C   0  0  2  0  0  0  0  0  0  0  0  0
   -7.1709   -0.0499    0.2484 C   0  0  2  0  0  0  0  0  0  0  0  0
   -7.7420    2.2193   -0.7341 C   0  0  0  0  0  0  0  0  0  0  0  0
   -5.5392   -3.2442    1.1263 C   0  0  0  0  0  0  0  0  0  0  0  0
    1.9774   -0.7219    1.6001 H   0  0  0  0  0  0  0  0  0  0  0  0
    0.7772    1.0513   -0.5655 H   0  0  0  0  0  0  0  0  0  0  0  0
   -2.1127   -0.7895    1.0965 H   0  0  0  0  0  0  0  0  0  0  0  0
    1.9183    1.8817    2.1367 H   0  0  0  0  0  0  0  0  0  0  0  0
    1.1822    2.9393    0.9458 H   0  0  0  0  0  0  0  0  0  0  0  0
    2.8748    2.4843   -0.6876 H   0  0  0  0  0  0  0  0  0  0  0  0
    3.6104    3.0455    0.7943 H   0  0  0  0  0  0  0  0  0  0  0  0
    5.4211    2.1420   -0.7551 H   0  0  0  0  0  0  0  0  0  0  0  0
    1.6099   -2.6000    0.1150 H   0  0  0  0  0  0  0  0  0  0  0  0
    0.9366   -1.5691   -1.1307 H   0  0  0  0  0  0  0  0  0  0  0  0
    2.3321    0.4209   -1.9910 H   0  0  0  0  0  0  0  0  0  0  0  0
    3.2098   -1.1046   -2.1524 H   0  0  0  0  0  0  0  0  0  0  0  0
   -0.8640   -2.6800    0.0623 H   0  0  0  0  0  0  0  0  0  0  0  0
   -0.2332   -2.1793    1.6139 H   0  0  0  0  0  0  0  0  0  0  0  0
    5.1271    0.0836   -2.6610 H   0  0  0  0  0  0  0  0  0  0  0  0
    4.1803    1.5404   -2.5566 H   0  0  0  0  0  0  0  0  0  0  0  0
   -0.8988    2.7902    1.3842 H   0  0  0  0  0  0  0  0  0  0  0  0
   -2.2913    1.7638    1.5831 H   0  0  0  0  0  0  0  0  0  0  0  0
   -0.7946   -0.2094   -1.6005 H   0  0  0  0  0  0  0  0  0  0  0  0
   -2.2182   -1.1840   -1.3041 H   0  0  0  0  0  0  0  0  0  0  0  0
    3.7288    0.6145    2.5559 H   0  0  0  0  0  0  0  0  0  0  0  0
    5.2104   -0.0842    1.9410 H   0  0  0  0  0  0  0  0  0  0  0  0
    5.0811    1.6667    2.1426 H   0  0  0  0  0  0  0  0  0  0  0  0
   -1.3289    0.1857    3.1281 H   0  0  0  0  0  0  0  0  0  0  0  0
    0.3165   -0.4094    2.9476 H   0  0  0  0  0  0  0  0  0  0  0  0
    0.0202    1.3122    3.1958 H   0  0  0  0  0  0  0  0  0  0  0  0
   -2.4887    3.0174   -0.4686 H   0  0  0  0  0  0  0  0  0  0  0  0
   -0.9369    2.4330   -1.0683 H   0  0  0  0  0  0  0  0  0  0  0  0
   -2.6700    1.1841   -2.1288 H   0  0  0  0  0  0  0  0  0  0  0  0
    3.8834   -1.6826    1.1461 H   0  0  0  0  0  0  0  0  0  0  0  0
    7.9567    1.7329   -0.2124 H   0  0  0  0  0  0  0  0  0  0  0  0
    7.2933    1.1586    1.3444 H   0  0  0  0  0  0  0  0  0  0  0  0
    6.0050   -1.6473   -1.3263 H   0  0  0  0  0  0  0  0  0  0  0  0
   -4.3004   -0.0070   -2.2968 H   0  0  0  0  0  0  0  0  0  0  0  0
   -4.2905   -1.8212   -0.5579 H   0  0  0  0  0  0  0  0  0  0  0  0
   -5.4152   -0.6561    1.3276 H   0  0  0  0  0  0  0  0  0  0  0  0
   -6.0013    1.7757    0.4094 H   0  0  0  0  0  0  0  0  0  0  0  0
   -7.9088   -0.5061   -0.4228 H   0  0  0  0  0  0  0  0  0  0  0  0
   -6.6020   -1.2246   -2.1006 H   0  0  0  0  0  0  0  0  0  0  0  0
   -7.3232    3.1177   -1.2011 H   0  0  0  0  0  0  0  0  0  0  0  0
   -8.4032    1.7595   -1.4769 H   0  0  0  0  0  0  0  0  0  0  0  0
   -8.3413    2.5290    0.1267 H   0  0  0  0  0  0  0  0  0  0  0  0
   -8.6392    0.6870    1.3085 H   0  0  0  0  0  0  0  0  0  0  0  0
   -4.7123   -2.8183    1.7041 H   0  0  0  0  0  0  0  0  0  0  0  0
   -5.1794   -3.6832    0.1916 H   0  0  0  0  0  0  0  0  0  0  0  0
   -5.9738   -4.0583    1.7145 H   0  0  0  0  0  0  0  0  0  0  0  0
  1  9  1  0  0  0  0
  1 68  1  0  0  0  0
  2 27  1  0  0  0  0
  2 31  1  0  0  0  0
  3 29  1  0  0  0  0
  3 32  1  0  0  0  0
  4 31  1  0  0  0  0
  4 35  1  0  0  0  0
  5 32  2  0  0  0  0
  6 33  1  0  0  0  0
  6 77  1  0  0  0  0
  7 34  1  0  0  0  0
  7 38  1  0  0  0  0
  8 36  1  0  0  0  0
  8 81  1  0  0  0  0
  9 10  1  0  0  0  0
  9 12  1  0  0  0  0
  9 19  1  0  0  0  0
 10 11  1  0  0  0  0
 10 18  1  0  0  0  0
 10 39  1  0  0  0  0
 11 13  1  0  0  0  0
 11 15  1  0  0  0  0
 11 40  1  0  0  0  0
 12 16  1  0  0  0  0
 12 17  1  0  0  0  0
 12 24  1  0  0  0  0
 13 14  1  0  0  0  0
 13 22  1  0  0  0  0
 13 25  1  0  0  0  0
 14 20  1  0  0  0  0
 14 23  1  0  0  0  0
 14 41  1  0  0  0  0
 15 16  1  0  0  0  0
 15 42  1  0  0  0  0
 15 43  1  0  0  0  0
 16 44  1  0  0  0  0
 16 45  1  0  0  0  0
 17 21  1  0  0  0  0
 17 28  1  0  0  0  0
 17 46  1  0  0  0  0
 18 20  1  0  0  0  0
 18 47  1  0  0  0  0
 18 48  1  0  0  0  0
 19 21  1  0  0  0  0
 19 49  1  0  0  0  0
 19 50  1  0  0  0  0
 20 51  1  0  0  0  0
 20 52  1  0  0  0  0
 21 53  1  0  0  0  0
 21 54  1  0  0  0  0
 22 26  1  0  0  0  0
 22 55  1  0  0  0  0
 22 56  1  0  0  0  0
 23 27  1  0  0  0  0
 23 57  1  0  0  0  0
 23 58  1  0  0  0  0
 24 59  1  0  0  0  0
 24 60  1  0  0  0  0
 24 61  1  0  0  0  0
 25 62  1  0  0  0  0
 25 63  1  0  0  0  0
 25 64  1  0  0  0  0
 26 27  1  0  0  0  0
 26 65  1  0  0  0  0
 26 66  1  0  0  0  0
 27 67  1  0  0  0  0
 28 29  1  0  0  0  0
 28 30  2  0  0  0  0
 29 69  1  0  0  0  0
 29 70  1  0  0  0  0
 30 32  1  0  0  0  0
 30 71  1  0  0  0  0
 31 33  1  0  0  0  0
 31 72  1  0  0  0  0
 33 34  1  0  0  0  0
 33 73  1  0  0  0  0
 34 36  1  0  0  0  0
 34 74  1  0  0  0  0
 35 36  1  0  0  0  0
 35 37  1  0  0  0  0
 35 75  1  0  0  0  0
 36 76  1  0  0  0  0
 37 78  1  0  0  0  0
 37 79  1  0  0  0  0
 37 80  1  0  0  0  0
 38 82  1  0  0  0  0
 38 83  1  0  0  0  0
 38 84  1  0  0  0  0
M  END
> <PUBCHEM_COMPOUND_CID>
165219

> <PUBCHEM_CONFORMER_RMSD>
1

> <PUBCHEM_CONFORMER_DIVERSEORDER>
12
11
16
27
15
29
18
6
7
22
25
9
8
2
19
26
13
20
14
28
10
17
3
30
5
23
4
1
24
21

> <PUBCHEM_MMFF94_PARTIAL_CHARGES>
25
1 -0.68
17 0.14
2 -0.56
27 0.28
28 -0.28
29 0.42
3 -0.43
30 -0.14
31 0.56
32 0.71
33 0.28
34 0.28
35 0.28
36 0.28
38 0.28
4 -0.56
5 -0.57
6 -0.68
68 0.4
7 -0.56
71 0.15
77 0.4
8 -0.68
81 0.4
9 0.28

> <PUBCHEM_EFFECTIVE_ROTOR_COUNT>
7.8

> <PUBCHEM_PHARMACOPHORE_FEATURES>
16
1 1 acceptor
1 1 donor
1 2 acceptor
1 4 acceptor
1 5 acceptor
1 6 acceptor
1 6 donor
1 7 acceptor
1 8 acceptor
1 8 donor
5 3 28 29 30 32 rings
5 9 12 17 19 21 rings
6 10 11 13 14 18 20 rings
6 13 14 22 23 26 27 rings
6 4 31 33 34 35 36 rings
6 9 10 11 12 15 16 rings

> <PUBCHEM_HEAVY_ATOM_COUNT>
38

> <PUBCHEM_ATOM_DEF_STEREO_COUNT>
13

> <PUBCHEM_ATOM_UDEF_STEREO_COUNT>
0

> <PUBCHEM_BOND_DEF_STEREO_COUNT>
0

> <PUBCHEM_BOND_UDEF_STEREO_COUNT>
0

> <PUBCHEM_ISOTOPIC_ATOM_COUNT>
0

> <PUBCHEM_COMPONENT_COUNT>
1

> <PUBCHEM_CACTVS_TAUTO_COUNT>
1

> <PUBCHEM_CONFORMER_ID>
000285630000000C

> <PUBCHEM_MMFF94_ENERGY>
134.0026

> <PUBCHEM_FEATURE_SELFOVERLAP>
81.483

> <PUBCHEM_SHAPE_FINGERPRINT>
10625338 86 9583523109526348719
11135926 11 18040711459840546255
11672396 43 18341623590385609694
11828532 37 18262527004199171436
12107698 1 17632856421783566336
12166972 35 18334295379624836628
13782708 43 18269555112357169419
13811026 1 18410571804183680322
13914758 101 17821729425374739682
14251764 18 8358254847712455678
14279260 333 18272373019120190099
14294032 229 18042683897300790637
14394314 77 11527958854298136183
14856354 85 17894630392582506735
15021287 119 16917071087899787513
15064986 266 18201450155579171328
15142383 8 14117804600332370032
15183329 4 14836408038426527869
15461852 350 13190346781438412121
1577012 14 16515957099471105301
18608769 82 18335421283166788983
19841028 212 18261952926524596298
21033648 29 12974180644166854932
21781051 124 18260837033089199866
21792961 116 18201436926409525212
22224240 67 10159693604035324740
23559900 14 18270953661320254448
23569917 315 18409456860771318370
2838139 119 16008467646478701813
3178227 256 18131073753263561998
335507 130 17749114396300837599
4098825 35 18114181951688523694
4169191 19 7781518130817918566
4173938 77 14346087480629231894
4325135 7 17312821585271421549
439807 62 18342739589933554332
484989 97 18335427910496785226
58083652 198 16128366104032833201
59755656 520 15936407870555345282
6009941 240 18413392025860681697
6691757 9 14418146084142891625
999808 66 18342177782256759183

> <PUBCHEM_SHAPE_MULTIPOLES>
735.07
24.72
2.42
1.62
1.5
0.8
-0.25
5.64
3.67
-2.28
-0.3
-0.54
-0.15
1.61

> <PUBCHEM_SHAPE_SELFOVERLAP>
1576.284

> <PUBCHEM_SHAPE_VOLUME>
403.9

> <PUBCHEM_COORDINATE_TYPE>
2
5
10

$$$$
