18684078
  -OEChem-02172602333D

 43 43  0     1  0  0  0  0  0999 V2000
   -0.3431    1.8386   -0.5733 O   0  0  0  0  0  0  0  0  0  0  0  0
   -2.1820    2.4171    0.6970 O   0  0  0  0  0  0  0  0  0  0  0  0
   -5.4719    0.5632   -0.0802 O   0  0  0  0  0  0  0  0  0  0  0  0
   -1.3064   -0.4315    2.5075 O   0  0  0  0  0  0  0  0  0  0  0  0
    3.0507   -1.6833   -1.8834 O   0  0  0  0  0  0  0  0  0  0  0  0
    4.5288   -2.0522    0.4417 O   0  0  0  0  0  0  0  0  0  0  0  0
   -2.8028   -0.4988   -0.0443 C   0  0  1  0  0  0  0  0  0  0  0  0
   -2.3485    0.6592   -0.9522 C   0  0  0  0  0  0  0  0  0  0  0  0
   -3.9805   -1.2704   -0.6711 C   0  0  0  0  0  0  0  0  0  0  0  0
   -1.6491   -1.4154    0.3416 C   0  0  0  0  0  0  0  0  0  0  0  0
   -1.6390    1.7350   -0.1627 C   0  0  0  0  0  0  0  0  0  0  0  0
    1.8508    2.8509   -0.4753 C   0  0  0  0  0  0  0  0  0  0  0  0
    0.4310    2.8490    0.0803 C   0  0  0  0  0  0  0  0  0  0  0  0
   -1.2277   -2.5444   -0.2589 C   0  0  0  0  0  0  0  0  0  0  0  0
    2.5634    1.5422   -0.2339 C   0  0  0  0  0  0  0  0  0  0  0  0
   -5.3078   -0.5470   -0.5737 C   0  0  0  0  0  0  0  0  0  0  0  0
   -0.8461   -1.0362    1.5459 C   0  0  0  0  0  0  0  0  0  0  0  0
    2.4803    0.5183   -1.1774 C   0  0  0  0  0  0  0  0  0  0  0  0
    3.3051    1.3570    0.9328 C   0  0  0  0  0  0  0  0  0  0  0  0
   -0.0890   -3.4321    0.1258 C   0  0  0  0  0  0  0  0  0  0  0  0
    3.1391   -0.6909   -0.9544 C   0  0  0  0  0  0  0  0  0  0  0  0
    3.9637    0.1478    1.1559 C   0  0  0  0  0  0  0  0  0  0  0  0
    3.8808   -0.8761    0.2122 C   0  0  0  0  0  0  0  0  0  0  0  0
   -3.1888   -0.0682    0.8903 H   0  0  0  0  0  0  0  0  0  0  0  0
   -3.1961    1.1476   -1.4467 H   0  0  0  0  0  0  0  0  0  0  0  0
   -1.6984    0.2915   -1.7560 H   0  0  0  0  0  0  0  0  0  0  0  0
   -4.1293   -2.2280   -0.1571 H   0  0  0  0  0  0  0  0  0  0  0  0
   -3.7934   -1.4819   -1.7300 H   0  0  0  0  0  0  0  0  0  0  0  0
    1.8249    3.0444   -1.5554 H   0  0  0  0  0  0  0  0  0  0  0  0
    2.4243    3.6717   -0.0279 H   0  0  0  0  0  0  0  0  0  0  0  0
    0.4429    2.6533    1.1595 H   0  0  0  0  0  0  0  0  0  0  0  0
   -0.0295    3.8272   -0.1004 H   0  0  0  0  0  0  0  0  0  0  0  0
   -1.7512   -2.8593   -1.1599 H   0  0  0  0  0  0  0  0  0  0  0  0
   -6.1652   -1.0990   -0.9966 H   0  0  0  0  0  0  0  0  0  0  0  0
    0.2140   -1.3365    1.5406 H   0  0  0  0  0  0  0  0  0  0  0  0
    1.9017    0.6627   -2.0867 H   0  0  0  0  0  0  0  0  0  0  0  0
    3.3753    2.1468    1.6761 H   0  0  0  0  0  0  0  0  0  0  0  0
    0.8266   -3.1223   -0.3857 H   0  0  0  0  0  0  0  0  0  0  0  0
   -0.3138   -4.4584   -0.1851 H   0  0  0  0  0  0  0  0  0  0  0  0
    0.0869   -3.4716    1.2040 H   0  0  0  0  0  0  0  0  0  0  0  0
    4.5375    0.0167    2.0695 H   0  0  0  0  0  0  0  0  0  0  0  0
    2.4921   -1.3798   -2.6195 H   0  0  0  0  0  0  0  0  0  0  0  0
    4.9884   -1.9989    1.2972 H   0  0  0  0  0  0  0  0  0  0  0  0
  1 11  1  0  0  0  0
  1 13  1  0  0  0  0
  2 11  2  0  0  0  0
  3 16  2  0  0  0  0
  4 17  2  0  0  0  0
  5 21  1  0  0  0  0
  5 42  1  0  0  0  0
  6 23  1  0  0  0  0
  6 43  1  0  0  0  0
  7  8  1  0  0  0  0
  7  9  1  0  0  0  0
  7 10  1  0  0  0  0
  7 24  1  0  0  0  0
  8 11  1  0  0  0  0
  8 25  1  0  0  0  0
  8 26  1  0  0  0  0
  9 16  1  0  0  0  0
  9 27  1  0  0  0  0
  9 28  1  0  0  0  0
 10 14  2  0  0  0  0
 10 17  1  0  0  0  0
 12 13  1  0  0  0  0
 12 15  1  0  0  0  0
 12 29  1  0  0  0  0
 12 30  1  0  0  0  0
 13 31  1  0  0  0  0
 13 32  1  0  0  0  0
 14 20  1  0  0  0  0
 14 33  1  0  0  0  0
 15 18  2  0  0  0  0
 15 19  1  0  0  0  0
 16 34  1  0  0  0  0
 17 35  1  0  0  0  0
 18 21  1  0  0  0  0
 18 36  1  0  0  0  0
 19 22  2  0  0  0  0
 19 37  1  0  0  0  0
 20 38  1  0  0  0  0
 20 39  1  0  0  0  0
 20 40  1  0  0  0  0
 21 23  2  0  0  0  0
 22 23  1  0  0  0  0
 22 41  1  0  0  0  0
M  END
> <PUBCHEM_COMPOUND_CID>
18684078

> <PUBCHEM_CONFORMER_RMSD>
1.2

> <PUBCHEM_CONFORMER_DIVERSEORDER>
1
36
24
185
144
164
175
70
180
40
199
161
56
141
47
150
117
134
38
166
156
210
157
158
189
129
73
197
77
196
35
63
165
205
179
181
119
218
191
2
116
147
44
188
58
131
184
65
14
99
148
6
61
198
79
172
97
142
75
223
53
93
103
10
174
138
34
84
153
118
133
48
145
50
125
62
154
222
204
214
173
123
29
95
121
192
213
4
183
207
202
193
41
195
92
163
18
101
159
102
54
67
68
170
136
7
208
81
9
130
126
225
182
212
113
51
26
151
86
140
17
107
209
12
112
80
23
178
160
128
109
194
28
82
111
31
169
49
45
221
211
219
127
20
177
152
215
43
89
21
217
59
115
13
60
100
155
27
146
106
206
30
187
186
5
201
87
94
42
171
203
124
216
90
46
122
132
22
167
105
55
135
52
11
15
149
64
83
137
88
16
224
71
25
8
33
176
96
85
66
91
190
72
76
3
69
143
168
78
32
139
74
110
98
162
120
200
220
37
57
104
108
19
39
114

> <PUBCHEM_MMFF94_PARTIAL_CHARGES>
31
1 -0.43
10 -0.12
11 0.66
12 0.14
13 0.28
14 -0.29
15 -0.14
16 0.45
17 0.5
18 -0.15
19 -0.15
2 -0.57
20 0.14
21 0.08
22 -0.15
23 0.08
3 -0.57
33 0.15
34 0.06
35 0.06
36 0.15
37 0.15
4 -0.57
41 0.15
42 0.45
43 0.45
5 -0.53
6 -0.53
7 0.14
8 0.06
9 0.06

> <PUBCHEM_EFFECTIVE_ROTOR_COUNT>
10

> <PUBCHEM_PHARMACOPHORE_FEATURES>
8
1 2 acceptor
1 20 hydrophobe
1 3 acceptor
1 4 acceptor
1 5 donor
1 6 donor
4 7 8 9 10 hydrophobe
6 15 18 19 21 22 23 rings

> <PUBCHEM_HEAVY_ATOM_COUNT>
23

> <PUBCHEM_ATOM_DEF_STEREO_COUNT>
0

> <PUBCHEM_ATOM_UDEF_STEREO_COUNT>
1

> <PUBCHEM_BOND_DEF_STEREO_COUNT>
1

> <PUBCHEM_BOND_UDEF_STEREO_COUNT>
0

> <PUBCHEM_ISOTOPIC_ATOM_COUNT>
0

> <PUBCHEM_COMPONENT_COUNT>
1

> <PUBCHEM_CACTVS_TAUTO_COUNT>
36

> <PUBCHEM_CONFORMER_ID>
011D18AE00000001

> <PUBCHEM_MMFF94_ENERGY>
42.4008

> <PUBCHEM_FEATURE_SELFOVERLAP>
40.6

> <PUBCHEM_SHAPE_FINGERPRINT>
10366900 7 17774445013500539624
10616163 171 17832989725343750084
12156800 1 16757956340437910830
12363563 72 18409170991561989820
12422481 6 18056228846194833713
12553582 1 18195546975995935716
12633257 1 18336536239739548150
12670545 2 18114453539355048499
12788726 201 18201732772648216505
13402501 40 18412541003301574862
14251751 93 18334285441096906877
14251757 17 18261938730997468309
15635459 17 18412548742837884580
17093844 170 18412822508253275154
18981168 100 10231487242062225600
192875 21 18341894103840480310
19591789 44 18336542828641529199
19930381 70 18410571743379528583
20715895 44 18411974750629014135
20832881 197 18335701624705098361
20905425 154 17834677089393385942
23559900 14 18341615970543556932
3680242 22 18335984181849777731
5309563 4 16533986143935689419
59755656 215 18191581944399750877
6138700 20 18262795168618947379
8988823 20 16988553658704637201
9709674 26 18337110188830135293

> <PUBCHEM_SHAPE_MULTIPOLES>
438.11
9.08
3.44
1.38
4.26
0.11
0.4
1.51
-0.85
-0.9
-0.14
-0.43
0.32
0.18

> <PUBCHEM_SHAPE_SELFOVERLAP>
892.277

> <PUBCHEM_SHAPE_VOLUME>
252.2

> <PUBCHEM_COORDINATE_TYPE>
2
5
10

$$$$
