9548726
  -OEChem-02172602383D

 50 50  0     1  0  0  0  0  0999 V2000
    0.7111    0.5273   -2.1581 S   0  0  0  0  0  0  0  0  0  0  0  0
   -6.8297    2.4129    1.2229 S   0  0  0  0  0  0  0  0  0  0  0  0
   -0.0262   -3.9356    0.3760 S   0  0  0  0  0  0  0  0  0  0  0  0
    1.6127    0.7534    0.3477 O   0  0  0  0  0  0  0  0  0  0  0  0
    4.9769    2.9226   -0.5828 O   0  0  0  0  0  0  0  0  0  0  0  0
    4.7201    1.6673    2.0513 O   0  0  0  0  0  0  0  0  0  0  0  0
    3.7006    1.3239   -2.6168 O   0  0  0  0  0  0  0  0  0  0  0  0
    1.0372   -0.2492    2.8386 O   0  0  0  0  0  0  0  0  0  0  0  0
   -0.7008   -2.6864   -0.4453 O   0  0  0  0  0  0  0  0  0  0  0  0
   -1.1740   -4.7687    0.7315 O   0  5  0  0  0  0  0  0  0  0  0  0
    0.6322   -3.3063    1.5202 O   0  0  0  0  0  0  0  0  0  0  0  0
    0.8862   -4.5542   -0.5850 O   0  0  0  0  0  0  0  0  0  0  0  0
    0.2589   -1.7640   -0.8764 N   0  0  0  0  0  0  0  0  0  0  0  0
    4.2276    1.7368   -0.3108 C   0  0  1  0  0  0  0  0  0  0  0  0
    3.6612    1.8066    1.1079 C   0  0  1  0  0  0  0  0  0  0  0  0
    3.1110    1.6342   -1.3547 C   0  0  2  0  0  0  0  0  0  0  0  0
    2.6409    0.6885    1.3366 C   0  0  1  0  0  0  0  0  0  0  0  0
    2.1065    0.5417   -0.9748 C   0  0  2  0  0  0  0  0  0  0  0  0
    1.9713    0.8061    2.7023 C   0  0  0  0  0  0  0  0  0  0  0  0
   -0.2872   -0.7830   -1.5233 C   0  0  0  0  0  0  0  0  0  0  0  0
   -1.7731   -0.6187   -1.7831 C   0  0  0  0  0  0  0  0  0  0  0  0
   -2.4243    0.2110   -0.6765 C   0  0  0  0  0  0  0  0  0  0  0  0
   -3.9149    0.4219   -0.9443 C   0  0  0  0  0  0  0  0  0  0  0  0
   -4.5750    1.2243    0.1802 C   0  0  0  0  0  0  0  0  0  0  0  0
   -6.0538    1.4600   -0.1139 C   0  0  0  0  0  0  0  0  0  0  0  0
   -8.4952    2.5279    0.5306 C   0  0  0  0  0  0  0  0  0  0  0  0
    4.9294    0.8984   -0.4023 H   0  0  0  0  0  0  0  0  0  0  0  0
    3.1973    2.7878    1.2697 H   0  0  0  0  0  0  0  0  0  0  0  0
    2.6203    2.6126   -1.4428 H   0  0  0  0  0  0  0  0  0  0  0  0
    3.1231   -0.2968    1.2758 H   0  0  0  0  0  0  0  0  0  0  0  0
    2.5868   -0.4428   -1.0358 H   0  0  0  0  0  0  0  0  0  0  0  0
    1.4154    1.7453    2.7872 H   0  0  0  0  0  0  0  0  0  0  0  0
    2.6921    0.7475    3.5233 H   0  0  0  0  0  0  0  0  0  0  0  0
    5.3133    2.8520   -1.4926 H   0  0  0  0  0  0  0  0  0  0  0  0
    5.3675    2.3691    1.8671 H   0  0  0  0  0  0  0  0  0  0  0  0
    2.9781    1.2489   -3.2634 H   0  0  0  0  0  0  0  0  0  0  0  0
   -1.9202   -0.1283   -2.7532 H   0  0  0  0  0  0  0  0  0  0  0  0
   -2.2549   -1.5990   -1.8617 H   0  0  0  0  0  0  0  0  0  0  0  0
   -1.9262    1.1844   -0.5911 H   0  0  0  0  0  0  0  0  0  0  0  0
   -2.2877   -0.2940    0.2880 H   0  0  0  0  0  0  0  0  0  0  0  0
   -4.4130   -0.5505   -1.0413 H   0  0  0  0  0  0  0  0  0  0  0  0
   -4.0440    0.9486   -1.8977 H   0  0  0  0  0  0  0  0  0  0  0  0
    1.5277   -1.0873    2.7884 H   0  0  0  0  0  0  0  0  0  0  0  0
   -4.0563    2.1851    0.2893 H   0  0  0  0  0  0  0  0  0  0  0  0
   -4.4598    0.6802    1.1262 H   0  0  0  0  0  0  0  0  0  0  0  0
   -6.5744    0.5017   -0.2128 H   0  0  0  0  0  0  0  0  0  0  0  0
   -6.1647    2.0131   -1.0525 H   0  0  0  0  0  0  0  0  0  0  0  0
   -8.9211    1.5305    0.3936 H   0  0  0  0  0  0  0  0  0  0  0  0
   -8.4748    3.0546   -0.4271 H   0  0  0  0  0  0  0  0  0  0  0  0
   -9.1341    3.0862    1.2200 H   0  0  0  0  0  0  0  0  0  0  0  0
  1 18  1  0  0  0  0
  1 20  1  0  0  0  0
  2 25  1  0  0  0  0
  2 26  1  0  0  0  0
  3  9  1  0  0  0  0
  3 10  1  0  0  0  0
  3 11  2  0  0  0  0
  3 12  2  0  0  0  0
  4 17  1  0  0  0  0
  4 18  1  0  0  0  0
  5 14  1  0  0  0  0
  5 34  1  0  0  0  0
  6 15  1  0  0  0  0
  6 35  1  0  0  0  0
  7 16  1  0  0  0  0
  7 36  1  0  0  0  0
  8 19  1  0  0  0  0
  8 43  1  0  0  0  0
  9 13  1  0  0  0  0
 13 20  2  0  0  0  0
 14 15  1  0  0  0  0
 14 16  1  0  0  0  0
 14 27  1  0  0  0  0
 15 17  1  0  0  0  0
 15 28  1  0  0  0  0
 16 18  1  0  0  0  0
 16 29  1  0  0  0  0
 17 19  1  0  0  0  0
 17 30  1  0  0  0  0
 18 31  1  0  0  0  0
 19 32  1  0  0  0  0
 19 33  1  0  0  0  0
 20 21  1  0  0  0  0
 21 22  1  0  0  0  0
 21 37  1  0  0  0  0
 21 38  1  0  0  0  0
 22 23  1  0  0  0  0
 22 39  1  0  0  0  0
 22 40  1  0  0  0  0
 23 24  1  0  0  0  0
 23 41  1  0  0  0  0
 23 42  1  0  0  0  0
 24 25  1  0  0  0  0
 24 44  1  0  0  0  0
 24 45  1  0  0  0  0
 25 46  1  0  0  0  0
 25 47  1  0  0  0  0
 26 48  1  0  0  0  0
 26 49  1  0  0  0  0
 26 50  1  0  0  0  0
M  CHG  1  10  -1
M  END
> <PUBCHEM_COMPOUND_CID>
9548726

> <PUBCHEM_CONFORMER_RMSD>
1

> <PUBCHEM_CONFORMER_DIVERSEORDER>
1
109
9
249
192
217
168
123
114
148
172
277
143
61
286
156
223
146
57
256
122
257
73
260
104
238
265
42
130
93
269
54
158
220
228
218
16
182
164
144
227
88
251
67
91
36
81
3
233
150
203
126
51
53
237
225
190
259
285
221
173
140
43
55
234
282
79
194
280
202
201
137
272
199
236
226
25
167
127
178
63
95
181
232
157
262
82
18
270
32
141
139
115
253
87
245
252
2
229
65
188
94
125
224
74
37
230
216
213
66
80
85
60
34
151
263
248
44
212
70
29
50
184
12
4
133
52
273
205
28
207
180
118
222
86
211
15
110
239
149
283
175
189
129
131
155
210
244
121
163
21
135
41
165
162
33
176
183
159
13
214
119
96
105
271
58
108
138
240
124
45
254
179
90
198
134
35
196
23
69
255
235
83
208
195
191
98
266
231
142
78
264
147
26
59
117
112
177
279
120
8
71
64
102
278
31
132
38
246
187
62
170
77
49
174
101
250
206
171
17
7
107
268
166
247
10
84
5
169
275
185
215
46
68
200
111
241
72
284
161
89
258
204
152
97
197
6
30
100
153
19
76
99
106
154
193
136
11
274
276
27
128
14
75
56
145
47
160
113
20
219
24
116
242
39
40
103
186
209
261
48
267
22
92
281
243

> <PUBCHEM_MMFF94_PARTIAL_CHARGES>
27
1 -0.37
10 -0.82
11 -0.82
12 -0.82
13 -0.51
14 0.28
15 0.28
16 0.28
17 0.28
18 0.51
19 0.28
2 -0.46
20 0.53
21 0.06
25 0.23
26 0.23
3 1.63
34 0.4
35 0.4
36 0.4
4 -0.56
43 0.4
5 -0.68
6 -0.68
7 -0.68
8 -0.68
9 -0.12

> <PUBCHEM_EFFECTIVE_ROTOR_COUNT>
12.2

> <PUBCHEM_PHARMACOPHORE_FEATURES>
18
1 10 acceptor
1 11 acceptor
1 12 acceptor
1 13 acceptor
1 26 hydrophobe
1 4 acceptor
1 5 acceptor
1 5 donor
1 6 acceptor
1 6 donor
1 7 acceptor
1 7 donor
1 8 acceptor
1 8 donor
3 2 24 25 hydrophobe
3 21 22 23 hydrophobe
4 3 10 11 12 anion
6 4 14 15 16 17 18 rings

> <PUBCHEM_HEAVY_ATOM_COUNT>
26

> <PUBCHEM_ATOM_DEF_STEREO_COUNT>
5

> <PUBCHEM_ATOM_UDEF_STEREO_COUNT>
0

> <PUBCHEM_BOND_DEF_STEREO_COUNT>
1

> <PUBCHEM_BOND_UDEF_STEREO_COUNT>
0

> <PUBCHEM_ISOTOPIC_ATOM_COUNT>
0

> <PUBCHEM_COMPONENT_COUNT>
1

> <PUBCHEM_CACTVS_TAUTO_COUNT>
1

> <PUBCHEM_CONFORMER_ID>
0091B3B600000001

> <PUBCHEM_MMFF94_ENERGY>
49.8912

> <PUBCHEM_FEATURE_SELFOVERLAP>
91.449

> <PUBCHEM_SHAPE_FINGERPRINT>
11070050 100 18411984637733367955
12788726 201 17539412436973458982
13533116 47 18121227485598972901
13955234 65 18191313667788565735
14251757 17 16343419617537409613
14565420 104 18412546484007041437
14739800 52 18058445422934608433
1979834 28 18041007189913647213
20775438 99 10157968414536286925
21796203 349 17242984944713814640
221357 26 15769782321058830521
23559900 14 17753337474650417935
27425 322 18271234045011580553
59682541 52 15195291902119084501
6786 2 18410012160633319419
7471813 234 11311786119634168738

> <PUBCHEM_SHAPE_MULTIPOLES>
488.81
13.81
4.91
2.47
36.02
9
0.66
-20.44
3.5
-1.67
1.37
-2.58
-0.64
-1.1

> <PUBCHEM_SHAPE_SELFOVERLAP>
923.414

> <PUBCHEM_SHAPE_VOLUME>
303.8

> <PUBCHEM_COORDINATE_TYPE>
2
5
10

$$$$
