10692563
  -OEChem-02172602373D

 52 53  0     1  0  0  0  0  0999 V2000
   -2.5508    0.7553   -0.0518 O   0  0  0  0  0  0  0  0  0  0  0  0
   -1.0078   -0.6276    1.0208 O   0  0  0  0  0  0  0  0  0  0  0  0
   -5.6577   -1.7574    0.8972 O   0  0  0  0  0  0  0  0  0  0  0  0
   -5.9948    0.2251   -1.1793 O   0  0  0  0  0  0  0  0  0  0  0  0
   -2.8826   -2.7458    0.9392 O   0  0  0  0  0  0  0  0  0  0  0  0
    0.5527   -1.8912   -0.1705 O   0  0  0  0  0  0  0  0  0  0  0  0
   -2.7640    2.8943   -1.7652 O   0  0  0  0  0  0  0  0  0  0  0  0
    5.0967   -0.9152   -0.2310 O   0  0  0  0  0  0  0  0  0  0  0  0
    3.7219    3.1240    0.3563 O   0  0  0  0  0  0  0  0  0  0  0  0
    4.3217   -2.2836   -1.9300 O   0  0  0  0  0  0  0  0  0  0  0  0
    1.4547    3.2111    0.1750 O   0  0  0  0  0  0  0  0  0  0  0  0
   -4.5876   -1.2647    0.0894 C   0  0  1  0  0  0  0  0  0  0  0  0
   -4.8973    0.1884   -0.2709 C   0  0  1  0  0  0  0  0  0  0  0  0
   -3.2735   -1.3751    0.8626 C   0  0  2  0  0  0  0  0  0  0  0  0
   -3.6827    0.8584   -0.9176 C   0  0  1  0  0  0  0  0  0  0  0  0
   -2.1545   -0.5958    0.1718 C   0  0  1  0  0  0  0  0  0  0  0  0
    0.1998   -0.5650    0.2639 C   0  0  2  0  0  0  0  0  0  0  0  0
   -3.9281    2.3410   -1.1792 C   0  0  0  0  0  0  0  0  0  0  0  0
    2.6465    0.1497    0.2425 C   0  0  1  0  0  0  0  0  0  0  0  0
    1.3270    0.1436    0.9979 C   0  0  0  0  0  0  0  0  0  0  0  0
    2.8287   -1.1602   -0.4718 C   0  0  0  0  0  0  0  0  0  0  0  0
    2.7027    1.3262   -0.7373 C   0  0  0  0  0  0  0  0  0  0  0  0
    1.8409   -2.0532   -0.6108 C   0  0  0  0  0  0  0  0  0  0  0  0
    1.2222    0.7121    2.2101 C   0  0  0  0  0  0  0  0  0  0  0  0
    4.1497   -1.5340   -0.9813 C   0  0  0  0  0  0  0  0  0  0  0  0
    2.5145    2.6397   -0.0328 C   0  0  0  0  0  0  0  0  0  0  0  0
    2.3509    1.3830    2.9118 C   0  0  0  0  0  0  0  0  0  0  0  0
    6.4509   -1.1830   -0.6092 C   0  0  0  0  0  0  0  0  0  0  0  0
   -4.5698   -1.8915   -0.8100 H   0  0  0  0  0  0  0  0  0  0  0  0
   -5.1953    0.7388    0.6307 H   0  0  0  0  0  0  0  0  0  0  0  0
   -3.4040   -1.0255    1.8937 H   0  0  0  0  0  0  0  0  0  0  0  0
   -3.4356    0.3814   -1.8758 H   0  0  0  0  0  0  0  0  0  0  0  0
   -1.9206   -1.0770   -0.7890 H   0  0  0  0  0  0  0  0  0  0  0  0
    0.0134    0.0313   -0.6419 H   0  0  0  0  0  0  0  0  0  0  0  0
   -4.1245    2.8851   -0.2493 H   0  0  0  0  0  0  0  0  0  0  0  0
   -4.7666    2.4983   -1.8636 H   0  0  0  0  0  0  0  0  0  0  0  0
    3.4737    0.2307    0.9496 H   0  0  0  0  0  0  0  0  0  0  0  0
   -5.6914   -1.2264    1.7111 H   0  0  0  0  0  0  0  0  0  0  0  0
   -6.7423   -0.2257   -0.7506 H   0  0  0  0  0  0  0  0  0  0  0  0
   -2.7614   -3.0761    0.0326 H   0  0  0  0  0  0  0  0  0  0  0  0
    1.9273    1.2530   -1.5110 H   0  0  0  0  0  0  0  0  0  0  0  0
    3.6553    1.3499   -1.2818 H   0  0  0  0  0  0  0  0  0  0  0  0
    1.9512   -3.0303   -1.0622 H   0  0  0  0  0  0  0  0  0  0  0  0
    0.2740    0.6931    2.7397 H   0  0  0  0  0  0  0  0  0  0  0  0
   -2.0251    2.7436   -1.1511 H   0  0  0  0  0  0  0  0  0  0  0  0
    2.0416    2.3985    3.1839 H   0  0  0  0  0  0  0  0  0  0  0  0
    3.2988    1.4788    2.3887 H   0  0  0  0  0  0  0  0  0  0  0  0
    2.5548    0.8478    3.8458 H   0  0  0  0  0  0  0  0  0  0  0  0
    3.6376    3.9815    0.8252 H   0  0  0  0  0  0  0  0  0  0  0  0
    7.1082   -0.6310    0.0678 H   0  0  0  0  0  0  0  0  0  0  0  0
    6.6661   -2.2517   -0.5149 H   0  0  0  0  0  0  0  0  0  0  0  0
    6.6325   -0.8406   -1.6324 H   0  0  0  0  0  0  0  0  0  0  0  0
  1 15  1  0  0  0  0
  1 16  1  0  0  0  0
  2 16  1  0  0  0  0
  2 17  1  0  0  0  0
  3 12  1  0  0  0  0
  3 38  1  0  0  0  0
  4 13  1  0  0  0  0
  4 39  1  0  0  0  0
  5 14  1  0  0  0  0
  5 40  1  0  0  0  0
  6 17  1  0  0  0  0
  6 23  1  0  0  0  0
  7 18  1  0  0  0  0
  7 45  1  0  0  0  0
  8 25  1  0  0  0  0
  8 28  1  0  0  0  0
  9 26  1  0  0  0  0
  9 49  1  0  0  0  0
 10 25  2  0  0  0  0
 11 26  2  0  0  0  0
 12 13  1  0  0  0  0
 12 14  1  0  0  0  0
 12 29  1  0  0  0  0
 13 15  1  0  0  0  0
 13 30  1  0  0  0  0
 14 16  1  0  0  0  0
 14 31  1  0  0  0  0
 15 18  1  0  0  0  0
 15 32  1  0  0  0  0
 16 33  1  0  0  0  0
 17 20  1  0  0  0  0
 17 34  1  0  0  0  0
 18 35  1  0  0  0  0
 18 36  1  0  0  0  0
 19 20  1  0  0  0  0
 19 21  1  0  0  0  0
 19 22  1  0  0  0  0
 19 37  1  0  0  0  0
 20 24  2  0  0  0  0
 21 23  2  0  0  0  0
 21 25  1  0  0  0  0
 22 26  1  0  0  0  0
 22 41  1  0  0  0  0
 22 42  1  0  0  0  0
 23 43  1  0  0  0  0
 24 27  1  0  0  0  0
 24 44  1  0  0  0  0
 27 46  1  0  0  0  0
 27 47  1  0  0  0  0
 27 48  1  0  0  0  0
 28 50  1  0  0  0  0
 28 51  1  0  0  0  0
 28 52  1  0  0  0  0
M  END
> <PUBCHEM_COMPOUND_CID>
10692563

> <PUBCHEM_CONFORMER_RMSD>
1

> <PUBCHEM_CONFORMER_DIVERSEORDER>
1
64
44
68
29
41
24
69
42
3
57
77
78
5
30
52
74
75
22
58
11
26
34
63
46
71
49
6
15
21
19
23
65
37
25
18
48
73
33
51
50
60
32
54
7
55
66
27
2
9
76
8
10
72
13
47
45
16
53
67
59
70
14
35
43
38
36
62
39
20
56
4
12
28
40
17
61
31

> <PUBCHEM_MMFF94_PARTIAL_CHARGES>
35
1 -0.56
10 -0.57
11 -0.57
12 0.28
13 0.28
14 0.28
15 0.28
16 0.56
17 0.7
18 0.28
19 0.28
2 -0.56
20 -0.28
21 -0.12
22 0.06
23 -0.07
24 -0.29
25 0.71
26 0.66
27 0.14
28 0.28
3 -0.68
38 0.4
39 0.4
4 -0.68
40 0.4
43 0.15
44 0.15
45 0.4
49 0.5
5 -0.68
6 -0.36
7 -0.68
8 -0.43
9 -0.65

> <PUBCHEM_EFFECTIVE_ROTOR_COUNT>
8.8

> <PUBCHEM_PHARMACOPHORE_FEATURES>
18
1 1 acceptor
1 10 acceptor
1 11 acceptor
1 2 acceptor
1 27 hydrophobe
1 3 acceptor
1 3 donor
1 4 acceptor
1 4 donor
1 5 acceptor
1 5 donor
1 6 acceptor
1 7 acceptor
1 7 donor
1 9 acceptor
3 9 11 26 anion
6 1 12 13 14 15 16 rings
6 6 17 19 20 21 23 rings

> <PUBCHEM_HEAVY_ATOM_COUNT>
28

> <PUBCHEM_ATOM_DEF_STEREO_COUNT>
7

> <PUBCHEM_ATOM_UDEF_STEREO_COUNT>
0

> <PUBCHEM_BOND_DEF_STEREO_COUNT>
1

> <PUBCHEM_BOND_UDEF_STEREO_COUNT>
0

> <PUBCHEM_ISOTOPIC_ATOM_COUNT>
0

> <PUBCHEM_COMPONENT_COUNT>
1

> <PUBCHEM_CACTVS_TAUTO_COUNT>
1

> <PUBCHEM_CONFORMER_ID>
00A327D300000001

> <PUBCHEM_MMFF94_ENERGY>
69.0129

> <PUBCHEM_FEATURE_SELFOVERLAP>
91.518

> <PUBCHEM_SHAPE_FINGERPRINT>
10165383 225 17912374413313966472
10498660 4 18040426703587325501
10670039 82 17967529030841293941
11421498 54 14923941207048924668
11595378 159 16805593760054019757
12166972 35 18060140938130078010
12236239 1 15195565701714533963
12422481 6 18194934518745986328
12596602 18 14129359381013653989
13134695 92 17418087694432489152
13402501 40 18408322168321622333
13631057 29 14708076404608540899
14170010 4 18131347527442863466
14251757 17 18337392638980563420
14863182 85 16271658814751654974
15183329 4 18114463357956592922
15961568 22 17896318210727993301
17349148 13 15841549656600249471
17357779 13 17916020166696944272
17909252 39 18413116048131341164
1813 80 15913056391238837506
18769570 83 17604151411798458628
21033650 10 17462030686038501726
21709351 56 18413668015283479863
221357 26 18410008806532308597
22393880 68 18114175320243369909
23419403 2 17702361980914578248
23557571 272 17968660557149986753
23559900 14 18410852162015603059
350125 39 18411145748536181851
44802255 64 17254587275194972620
46194498 28 18411985771098345222
508706 21 18261381205735740357
5281201 14 18411984663091689005
6669772 16 17129846469552415664
6823239 73 18335134289125798816
7471813 234 17131834235749951370
7495541 125 18335426772298835406
9709674 26 18335421326511983911

> <PUBCHEM_SHAPE_MULTIPOLES>
511.66
12.56
3.25
1.7
4.9
1.88
-0.88
-3.81
4.05
-1.16
0.56
-0.58
0.58
3.34

> <PUBCHEM_SHAPE_SELFOVERLAP>
1059.02

> <PUBCHEM_SHAPE_VOLUME>
286.7

> <PUBCHEM_COORDINATE_TYPE>
2
5
10

$$$$
