14038300
  -OEChem-02172602373D

 55 56  0     1  0  0  0  0  0999 V2000
   -2.1858    0.3366   -0.4606 O   0  0  0  0  0  0  0  0  0  0  0  0
   -0.9961   -1.0638    0.9772 O   0  0  0  0  0  0  0  0  0  0  0  0
   -5.7810   -0.9533    1.0484 O   0  0  0  0  0  0  0  0  0  0  0  0
   -5.7000    0.4312   -1.4878 O   0  0  0  0  0  0  0  0  0  0  0  0
   -3.3483   -2.5740    1.4172 O   0  0  0  0  0  0  0  0  0  0  0  0
    0.6316   -2.0728   -0.3584 O   0  0  0  0  0  0  0  0  0  0  0  0
   -1.9284    1.9303   -2.6855 O   0  0  0  0  0  0  0  0  0  0  0  0
    5.1262   -0.8983   -0.2082 O   0  0  0  0  0  0  0  0  0  0  0  0
    1.2676    3.1165    0.0246 O   0  0  0  0  0  0  0  0  0  0  0  0
    4.4303   -2.0413   -2.0973 O   0  0  0  0  0  0  0  0  0  0  0  0
    3.0926    2.8189    1.4047 O   0  0  0  0  0  0  0  0  0  0  0  0
   -4.6595   -0.9822    0.1642 C   0  0  1  0  0  0  0  0  0  0  0  0
   -4.6069    0.3540   -0.5765 C   0  0  1  0  0  0  0  0  0  0  0  0
   -3.3821   -1.2190    0.9699 C   0  0  2  0  0  0  0  0  0  0  0  0
   -3.2933    0.4954   -1.3491 C   0  0  1  0  0  0  0  0  0  0  0  0
   -2.1353   -0.9631    0.1233 C   0  0  1  0  0  0  0  0  0  0  0  0
    0.2142   -0.8398    0.2558 C   0  0  2  0  0  0  0  0  0  0  0  0
   -3.1665    1.8686   -2.0012 C   0  0  0  0  0  0  0  0  0  0  0  0
    2.6254   -0.0220    0.3749 C   0  0  1  0  0  0  0  0  0  0  0  0
    1.3009   -0.1948    1.1011 C   0  0  0  0  0  0  0  0  0  0  0  0
    2.8741   -1.2062   -0.5166 C   0  0  0  0  0  0  0  0  0  0  0  0
    2.6363    1.2845   -0.4255 C   0  0  0  0  0  0  0  0  0  0  0  0
    1.9298   -2.1128   -0.7973 C   0  0  0  0  0  0  0  0  0  0  0  0
    1.1592    0.1885    2.3803 C   0  0  0  0  0  0  0  0  0  0  0  0
    4.2155   -1.4442   -1.0539 C   0  0  0  0  0  0  0  0  0  0  0  0
    2.3954    2.4792    0.4586 C   0  0  0  0  0  0  0  0  0  0  0  0
   -0.1062    0.0495    3.1523 C   0  0  0  0  0  0  0  0  0  0  0  0
    6.4946   -1.0489   -0.5998 C   0  0  0  0  0  0  0  0  0  0  0  0
    0.8956    4.2834    0.7652 C   0  0  0  0  0  0  0  0  0  0  0  0
   -4.8418   -1.8085   -0.5329 H   0  0  0  0  0  0  0  0  0  0  0  0
   -4.7194    1.1771    0.1398 H   0  0  0  0  0  0  0  0  0  0  0  0
   -3.3718   -0.5896    1.8676 H   0  0  0  0  0  0  0  0  0  0  0  0
   -3.2168   -0.2637   -2.1396 H   0  0  0  0  0  0  0  0  0  0  0  0
   -2.0411   -1.7231   -0.6642 H   0  0  0  0  0  0  0  0  0  0  0  0
    0.0336   -0.1367   -0.5676 H   0  0  0  0  0  0  0  0  0  0  0  0
   -3.9734    2.0495   -2.7177 H   0  0  0  0  0  0  0  0  0  0  0  0
   -3.1687    2.6608   -1.2450 H   0  0  0  0  0  0  0  0  0  0  0  0
    3.4120    0.0263    1.1404 H   0  0  0  0  0  0  0  0  0  0  0  0
   -5.6399   -0.2388    1.6927 H   0  0  0  0  0  0  0  0  0  0  0  0
   -5.6019   -0.2869   -2.1362 H   0  0  0  0  0  0  0  0  0  0  0  0
   -3.3556   -3.1504    0.6340 H   0  0  0  0  0  0  0  0  0  0  0  0
    1.8906    1.2593   -1.2310 H   0  0  0  0  0  0  0  0  0  0  0  0
    3.6042    1.4420   -0.9174 H   0  0  0  0  0  0  0  0  0  0  0  0
    2.0889   -3.0091   -1.3822 H   0  0  0  0  0  0  0  0  0  0  0  0
    2.0018    0.6275    2.9082 H   0  0  0  0  0  0  0  0  0  0  0  0
   -1.8656    2.8139   -3.0863 H   0  0  0  0  0  0  0  0  0  0  0  0
   -0.9279    0.6165    2.7049 H   0  0  0  0  0  0  0  0  0  0  0  0
    0.0450    0.4801    4.1496 H   0  0  0  0  0  0  0  0  0  0  0  0
   -0.3775   -0.9978    3.3142 H   0  0  0  0  0  0  0  0  0  0  0  0
    7.1198   -0.5715    0.1594 H   0  0  0  0  0  0  0  0  0  0  0  0
    6.6696   -0.5552   -1.5604 H   0  0  0  0  0  0  0  0  0  0  0  0
    6.7580   -2.1094   -0.6562 H   0  0  0  0  0  0  0  0  0  0  0  0
    0.6880    4.0196    1.8067 H   0  0  0  0  0  0  0  0  0  0  0  0
    1.6863    5.0373    0.7067 H   0  0  0  0  0  0  0  0  0  0  0  0
   -0.0144    4.6930    0.3190 H   0  0  0  0  0  0  0  0  0  0  0  0
  1 15  1  0  0  0  0
  1 16  1  0  0  0  0
  2 16  1  0  0  0  0
  2 17  1  0  0  0  0
  3 12  1  0  0  0  0
  3 39  1  0  0  0  0
  4 13  1  0  0  0  0
  4 40  1  0  0  0  0
  5 14  1  0  0  0  0
  5 41  1  0  0  0  0
  6 17  1  0  0  0  0
  6 23  1  0  0  0  0
  7 18  1  0  0  0  0
  7 46  1  0  0  0  0
  8 25  1  0  0  0  0
  8 28  1  0  0  0  0
  9 26  1  0  0  0  0
  9 29  1  0  0  0  0
 10 25  2  0  0  0  0
 11 26  2  0  0  0  0
 12 13  1  0  0  0  0
 12 14  1  0  0  0  0
 12 30  1  0  0  0  0
 13 15  1  0  0  0  0
 13 31  1  0  0  0  0
 14 16  1  0  0  0  0
 14 32  1  0  0  0  0
 15 18  1  0  0  0  0
 15 33  1  0  0  0  0
 16 34  1  0  0  0  0
 17 20  1  0  0  0  0
 17 35  1  0  0  0  0
 18 36  1  0  0  0  0
 18 37  1  0  0  0  0
 19 20  1  0  0  0  0
 19 21  1  0  0  0  0
 19 22  1  0  0  0  0
 19 38  1  0  0  0  0
 20 24  2  0  0  0  0
 21 23  2  0  0  0  0
 21 25  1  0  0  0  0
 22 26  1  0  0  0  0
 22 42  1  0  0  0  0
 22 43  1  0  0  0  0
 23 44  1  0  0  0  0
 24 27  1  0  0  0  0
 24 45  1  0  0  0  0
 27 47  1  0  0  0  0
 27 48  1  0  0  0  0
 27 49  1  0  0  0  0
 28 50  1  0  0  0  0
 28 51  1  0  0  0  0
 28 52  1  0  0  0  0
 29 53  1  0  0  0  0
 29 54  1  0  0  0  0
 29 55  1  0  0  0  0
M  END
> <PUBCHEM_COMPOUND_CID>
14038300

> <PUBCHEM_CONFORMER_RMSD>
1

> <PUBCHEM_CONFORMER_DIVERSEORDER>
5
66
109
59
117
116
126
63
103
65
67
127
44
32
122
87
8
123
26
82
118
68
88
94
6
52
48
114
62
106
98
84
57
100
78
28
36
113
25
24
64
124
83
23
73
93
72
102
19
95
79
38
111
2
125
18
71
49
61
96
56
92
86
99
115
54
107
101
11
81
35
91
51
27
42
77
104
37
58
14
17
97
21
4
47
80
3
40
69
53
108
74
128
45
105
85
15
41
12
129
31
121
76
9
112
22
43
70
75
39
90
29
20
46
30
110
50
130
119
34
33
55
7
10
89
1
120
16
13
60

> <PUBCHEM_MMFF94_PARTIAL_CHARGES>
35
1 -0.56
10 -0.57
11 -0.57
12 0.28
13 0.28
14 0.28
15 0.28
16 0.56
17 0.7
18 0.28
19 0.28
2 -0.56
20 -0.28
21 -0.12
22 0.06
23 -0.07
24 -0.29
25 0.71
26 0.66
27 0.14
28 0.28
29 0.28
3 -0.68
39 0.4
4 -0.68
40 0.4
41 0.4
44 0.15
45 0.15
46 0.4
5 -0.68
6 -0.36
7 -0.68
8 -0.43
9 -0.43

> <PUBCHEM_EFFECTIVE_ROTOR_COUNT>
9.8

> <PUBCHEM_PHARMACOPHORE_FEATURES>
16
1 1 acceptor
1 10 acceptor
1 11 acceptor
1 2 acceptor
1 27 hydrophobe
1 3 acceptor
1 3 donor
1 4 acceptor
1 4 donor
1 5 acceptor
1 5 donor
1 6 acceptor
1 7 acceptor
1 7 donor
6 1 12 13 14 15 16 rings
6 6 17 19 20 21 23 rings

> <PUBCHEM_HEAVY_ATOM_COUNT>
29

> <PUBCHEM_ATOM_DEF_STEREO_COUNT>
7

> <PUBCHEM_ATOM_UDEF_STEREO_COUNT>
0

> <PUBCHEM_BOND_DEF_STEREO_COUNT>
1

> <PUBCHEM_BOND_UDEF_STEREO_COUNT>
0

> <PUBCHEM_ISOTOPIC_ATOM_COUNT>
0

> <PUBCHEM_COMPONENT_COUNT>
1

> <PUBCHEM_CACTVS_TAUTO_COUNT>
1

> <PUBCHEM_CONFORMER_ID>
00D6351C00000005

> <PUBCHEM_MMFF94_ENERGY>
72.6453

> <PUBCHEM_FEATURE_SELFOVERLAP>
81.308

> <PUBCHEM_SHAPE_FINGERPRINT>
10366900 7 18187076231384096287
10498660 4 17530959168804560231
10670039 82 17022900138107499247
11007060 377 11243410794612607486
11578080 2 15865786299766401012
11595378 159 16443335464911205159
12166972 35 17917991693734527818
12236239 1 15554445188871643502
12596602 18 14418148321857100351
13134695 92 17275099539934206746
13402501 40 18334293166956666700
13782708 43 18338523031582408467
13911987 19 18266202633290960382
14251757 17 18335697200756700460
15806764 133 18408885127176292293
15961568 22 17533218806380296853
17357779 13 18130504116256914356
17980427 23 17417830421802187552
1813 80 17559976354297897996
19930381 70 18053664956524565329
21792961 116 18336557015114258718
221357 26 18410005503586394037
23536364 44 18193558865735993764
23557571 272 17968098676675278459
23559900 14 18186237338176532951
46194498 28 18342172284508534735
5081480 168 18272101486507720021
508706 21 17968363598795504317
5281201 14 18412262843865471871
6287921 2 18048603908574930877
6823239 73 18259980483181476277
7471813 234 17060340704088432634
7495541 125 18336837471434477714
7808743 9 17314507028769245117

> <PUBCHEM_SHAPE_MULTIPOLES>
532.24
11.33
3.35
2.2
2.16
3.82
-0.56
-4.89
4.28
-2.16
-0.11
0.83
0.39
3.28

> <PUBCHEM_SHAPE_SELFOVERLAP>
1097.529

> <PUBCHEM_SHAPE_VOLUME>
299.9

> <PUBCHEM_COORDINATE_TYPE>
2
5
10

$$$$
