11652416
  -OEChem-02172602333D

 42 42  0     1  0  0  0  0  0999 V2000
   -0.2341   -1.8146   -0.6069 O   0  0  0  0  0  0  0  0  0  0  0  0
   -2.0108   -2.6717    0.5926 O   0  0  0  0  0  0  0  0  0  0  0  0
   -4.8649   -0.3533    1.2146 O   0  0  0  0  0  0  0  0  0  0  0  0
   -1.6018    1.8545   -2.3360 O   0  0  0  0  0  0  0  0  0  0  0  0
    4.1833    2.4613    0.5415 O   0  0  0  0  0  0  0  0  0  0  0  0
   -2.3556    0.5028    0.1085 C   0  0  2  0  0  0  0  0  0  0  0  0
   -2.3170   -0.7305   -0.8130 C   0  0  0  0  0  0  0  0  0  0  0  0
   -3.6508    1.3169   -0.0783 C   0  0  0  0  0  0  0  0  0  0  0  0
   -1.1082    1.3649   -0.0354 C   0  0  0  0  0  0  0  0  0  0  0  0
   -1.5314   -1.8615   -0.1902 C   0  0  0  0  0  0  0  0  0  0  0  0
    2.0361   -2.6474   -0.6108 C   0  0  0  0  0  0  0  0  0  0  0  0
    0.6247   -2.8204   -0.0606 C   0  0  0  0  0  0  0  0  0  0  0  0
   -0.1666    1.6514    0.8833 C   0  0  0  0  0  0  0  0  0  0  0  0
   -4.8681    0.6879    0.5673 C   0  0  0  0  0  0  0  0  0  0  0  0
    2.6088   -1.2850   -0.3040 C   0  0  0  0  0  0  0  0  0  0  0  0
   -0.8583    1.9908   -1.3713 C   0  0  0  0  0  0  0  0  0  0  0  0
   -0.1044    1.2255    2.3143 C   0  0  0  0  0  0  0  0  0  0  0  0
    2.4181   -0.2304   -1.1970 C   0  0  0  0  0  0  0  0  0  0  0  0
    3.3287   -1.0805    0.8731 C   0  0  0  0  0  0  0  0  0  0  0  0
    2.9473    1.0284   -0.9129 C   0  0  0  0  0  0  0  0  0  0  0  0
    3.8580    0.1782    1.1572 C   0  0  0  0  0  0  0  0  0  0  0  0
    3.6673    1.2327    0.2642 C   0  0  0  0  0  0  0  0  0  0  0  0
   -2.3747    0.1278    1.1387 H   0  0  0  0  0  0  0  0  0  0  0  0
   -3.3267   -1.1245   -0.9845 H   0  0  0  0  0  0  0  0  0  0  0  0
   -1.9181   -0.5264   -1.8116 H   0  0  0  0  0  0  0  0  0  0  0  0
   -3.8824    1.4541   -1.1402 H   0  0  0  0  0  0  0  0  0  0  0  0
   -3.5468    2.3109    0.3735 H   0  0  0  0  0  0  0  0  0  0  0  0
    2.0248   -2.7851   -1.6997 H   0  0  0  0  0  0  0  0  0  0  0  0
    2.6928   -3.4282   -0.2085 H   0  0  0  0  0  0  0  0  0  0  0  0
    0.2451   -3.8110   -0.3362 H   0  0  0  0  0  0  0  0  0  0  0  0
    0.6310   -2.7312    1.0325 H   0  0  0  0  0  0  0  0  0  0  0  0
    0.6639    2.2988    0.6060 H   0  0  0  0  0  0  0  0  0  0  0  0
   -5.8074    1.2498    0.4238 H   0  0  0  0  0  0  0  0  0  0  0  0
    0.0538    2.6057   -1.4552 H   0  0  0  0  0  0  0  0  0  0  0  0
   -0.0772    2.1083    2.9607 H   0  0  0  0  0  0  0  0  0  0  0  0
    0.8083    0.6475    2.4882 H   0  0  0  0  0  0  0  0  0  0  0  0
   -0.9532    0.6121    2.6222 H   0  0  0  0  0  0  0  0  0  0  0  0
    1.8581   -0.3753   -2.1170 H   0  0  0  0  0  0  0  0  0  0  0  0
    3.4816   -1.8939    1.5774 H   0  0  0  0  0  0  0  0  0  0  0  0
    2.7944    1.8463   -1.6117 H   0  0  0  0  0  0  0  0  0  0  0  0
    4.4158    0.3248    2.0781 H   0  0  0  0  0  0  0  0  0  0  0  0
    4.6480    2.4224    1.3951 H   0  0  0  0  0  0  0  0  0  0  0  0
  1 10  1  0  0  0  0
  1 12  1  0  0  0  0
  2 10  2  0  0  0  0
  3 14  2  0  0  0  0
  4 16  2  0  0  0  0
  5 22  1  0  0  0  0
  5 42  1  0  0  0  0
  6  7  1  0  0  0  0
  6  8  1  0  0  0  0
  6  9  1  0  0  0  0
  6 23  1  0  0  0  0
  7 10  1  0  0  0  0
  7 24  1  0  0  0  0
  7 25  1  0  0  0  0
  8 14  1  0  0  0  0
  8 26  1  0  0  0  0
  8 27  1  0  0  0  0
  9 13  2  0  0  0  0
  9 16  1  0  0  0  0
 11 12  1  0  0  0  0
 11 15  1  0  0  0  0
 11 28  1  0  0  0  0
 11 29  1  0  0  0  0
 12 30  1  0  0  0  0
 12 31  1  0  0  0  0
 13 17  1  0  0  0  0
 13 32  1  0  0  0  0
 14 33  1  0  0  0  0
 15 18  2  0  0  0  0
 15 19  1  0  0  0  0
 16 34  1  0  0  0  0
 17 35  1  0  0  0  0
 17 36  1  0  0  0  0
 17 37  1  0  0  0  0
 18 20  1  0  0  0  0
 18 38  1  0  0  0  0
 19 21  2  0  0  0  0
 19 39  1  0  0  0  0
 20 22  2  0  0  0  0
 20 40  1  0  0  0  0
 21 22  1  0  0  0  0
 21 41  1  0  0  0  0
M  END
> <PUBCHEM_COMPOUND_CID>
11652416

> <PUBCHEM_CONFORMER_RMSD>
1

> <PUBCHEM_CONFORMER_DIVERSEORDER>
1
115
90
56
78
83
145
113
107
134
30
133
130
112
45
96
127
61
91
22
80
143
17
92
131
77
75
88
68
89
102
120
98
128
19
10
37
151
42
54
142
24
136
60
103
44
139
49
71
40
141
137
2
152
117
126
63
135
150
116
146
109
121
8
14
95
122
43
110
93
118
85
11
52
58
119
125
57
47
101
26
9
5
50
39
111
94
70
66
46
15
149
82
13
132
27
48
138
12
34
100
79
41
69
21
99
76
123
129
23
84
73
108
106
114
81
147
148
38
65
144
72
31
59
29
7
86
32
67
87
140
20
51
97
124
64
33
53
3
16
36
6
4
62
35
55
18
104
105
28
74
25

> <PUBCHEM_MMFF94_PARTIAL_CHARGES>
30
1 -0.43
10 0.66
11 0.14
12 0.28
13 -0.29
14 0.45
15 -0.14
16 0.5
17 0.14
18 -0.15
19 -0.15
2 -0.57
20 -0.15
21 -0.15
22 0.08
3 -0.57
32 0.15
33 0.06
34 0.06
38 0.15
39 0.15
4 -0.57
40 0.15
41 0.15
42 0.45
5 -0.53
6 0.14
7 0.06
8 0.06
9 -0.12

> <PUBCHEM_EFFECTIVE_ROTOR_COUNT>
10

> <PUBCHEM_PHARMACOPHORE_FEATURES>
7
1 17 hydrophobe
1 2 acceptor
1 3 acceptor
1 4 acceptor
1 5 donor
4 6 7 8 9 hydrophobe
6 15 18 19 20 21 22 rings

> <PUBCHEM_HEAVY_ATOM_COUNT>
22

> <PUBCHEM_ATOM_DEF_STEREO_COUNT>
1

> <PUBCHEM_ATOM_UDEF_STEREO_COUNT>
0

> <PUBCHEM_BOND_DEF_STEREO_COUNT>
1

> <PUBCHEM_BOND_UDEF_STEREO_COUNT>
0

> <PUBCHEM_ISOTOPIC_ATOM_COUNT>
0

> <PUBCHEM_COMPONENT_COUNT>
1

> <PUBCHEM_CACTVS_TAUTO_COUNT>
4

> <PUBCHEM_CONFORMER_ID>
00B1CD4000000001

> <PUBCHEM_MMFF94_ENERGY>
35.6543

> <PUBCHEM_FEATURE_SELFOVERLAP>
35.522

> <PUBCHEM_SHAPE_FINGERPRINT>
10493431 412 18341897449688666577
10759866 29 18262234530143564240
11112241 14 16485551342371334128
11370993 70 18191848072893238676
12403259 226 17829332388871740095
12403814 3 18186795872982844341
12596599 1 14404615601683631344
12633257 1 18339630201178051320
12788726 201 17489317347240198152
13140716 1 18409166623443573802
13583140 156 17096348567083438879
14787075 74 18060135466415680001
19930381 70 18339361859842683665
20715895 44 17974837381526116669
23557571 272 17459196179453436349
23559900 14 18198910214540615694
350125 39 18338242570417679566
4340502 62 18343305877018600977
44154327 71 18411142432863484486
49207404 50 18335992973563442915
537710 114 18272374127052616019

> <PUBCHEM_SHAPE_MULTIPOLES>
423.4
7.98
3.08
1.55
2.75
1.5
-0.01
-2.1
1.9
-1.01
-0.2
0.21
-0.8
0.64

> <PUBCHEM_SHAPE_SELFOVERLAP>
858.761

> <PUBCHEM_SHAPE_VOLUME>
244.3

> <PUBCHEM_COORDINATE_TYPE>
2
5
10

$$$$
