101297598
  -OEChem-02172602533D

 84 88  0     1  0  0  0  0  0999 V2000
   -4.9928    0.4861   -0.8306 O   0  0  0  0  0  0  0  0  0  0  0  0
    7.8743    1.1953    0.6606 O   0  0  0  0  0  0  0  0  0  0  0  0
   -5.6784   -1.1152    2.3131 O   0  0  0  0  0  0  0  0  0  0  0  0
   -7.2725   -1.3144    0.1065 O   0  0  0  0  0  0  0  0  0  0  0  0
   -0.6430    0.0499    0.2361 C   0  0  2  0  0  0  0  0  0  0  0  0
    0.1526   -0.9954   -0.6142 C   0  0  1  0  0  0  0  0  0  0  0  0
    2.1944    0.4962    0.0054 C   0  0  2  0  0  0  0  0  0  0  0  0
    3.7259    0.6704   -0.3697 C   0  0  2  0  0  0  0  0  0  0  0  0
   -2.1068   -0.3317   -0.1162 C   0  0  1  0  0  0  0  0  0  0  0  0
    1.6434   -0.8957   -0.3192 C   0  0  0  0  0  0  0  0  0  0  0  0
   -0.2332    1.4796   -0.1650 C   0  0  0  0  0  0  0  0  0  0  0  0
    4.5016   -0.5444    0.2562 C   0  0  2  0  0  0  0  0  0  0  0  0
   -0.5977   -2.2968   -0.2498 C   0  0  0  0  0  0  0  0  0  0  0  0
    1.2707    1.6395   -0.4945 C   0  0  0  0  0  0  0  0  0  0  0  0
   -2.0812   -1.8797   -0.1311 C   0  0  0  0  0  0  0  0  0  0  0  0
    6.0842   -0.4583    0.2166 C   0  0  0  0  0  0  0  0  0  0  0  0
   -3.2051    0.2336    0.7771 C   0  0  2  0  0  0  0  0  0  0  0  0
    4.2374    2.0098    0.2490 C   0  0  0  0  0  0  0  0  0  0  0  0
    3.9460   -1.9026   -0.2332 C   0  0  0  0  0  0  0  0  0  0  0  0
   -0.4534   -0.1118    1.7797 C   0  0  0  0  0  0  0  0  0  0  0  0
    0.0113   -0.8330   -2.1620 C   0  0  0  0  0  0  0  0  0  0  0  0
    2.4578   -1.9623   -0.3871 C   0  0  0  0  0  0  0  0  0  0  0  0
    6.5618    1.0218    0.1278 C   0  0  1  0  0  0  0  0  0  0  0  0
    3.8976    0.7232   -1.9073 C   0  0  0  0  0  0  0  0  0  0  0  0
    5.6301    1.9627    0.8697 C   0  0  0  0  0  0  0  0  0  0  0  0
   -4.5694   -0.2575    0.3268 C   0  0  1  0  0  0  0  0  0  0  0  0
    6.6240   -1.1262    1.5113 C   0  0  0  0  0  0  0  0  0  0  0  0
    6.7227   -1.2355   -0.9589 C   0  0  0  0  0  0  0  0  0  0  0  0
   -3.1644    1.7610    0.7823 C   0  0  0  0  0  0  0  0  0  0  0  0
   -5.6549   -0.0615    1.3731 C   0  0  1  0  0  0  0  0  0  0  0  0
   -6.9001    0.0024    0.5090 C   0  0  1  0  0  0  0  0  0  0  0  0
   -6.3986    0.8096   -0.6983 C   0  0  0  0  0  0  0  0  0  0  0  0
   -6.4933    2.3198   -0.4481 C   0  0  0  0  0  0  0  0  0  0  0  0
   -7.0912    0.4610   -2.0150 C   0  0  0  0  0  0  0  0  0  0  0  0
    2.1698    0.5719    1.1001 H   0  0  0  0  0  0  0  0  0  0  0  0
   -2.3206    0.0076   -1.1390 H   0  0  0  0  0  0  0  0  0  0  0  0
   -0.4501    2.1925    0.6359 H   0  0  0  0  0  0  0  0  0  0  0  0
   -0.8068    1.8209   -1.0356 H   0  0  0  0  0  0  0  0  0  0  0  0
    4.2373   -0.5025    1.3266 H   0  0  0  0  0  0  0  0  0  0  0  0
   -0.4724   -3.0902   -0.9955 H   0  0  0  0  0  0  0  0  0  0  0  0
   -0.2494   -2.7047    0.7069 H   0  0  0  0  0  0  0  0  0  0  0  0
    1.3658    1.7488   -1.5795 H   0  0  0  0  0  0  0  0  0  0  0  0
    1.6034    2.6014   -0.0868 H   0  0  0  0  0  0  0  0  0  0  0  0
   -2.6517   -2.2628   -0.9850 H   0  0  0  0  0  0  0  0  0  0  0  0
   -2.5092   -2.3190    0.7771 H   0  0  0  0  0  0  0  0  0  0  0  0
   -3.0573   -0.1209    1.8043 H   0  0  0  0  0  0  0  0  0  0  0  0
    3.5620    2.3574    1.0407 H   0  0  0  0  0  0  0  0  0  0  0  0
    4.2179    2.7995   -0.5134 H   0  0  0  0  0  0  0  0  0  0  0  0
    4.2543   -2.6919    0.4621 H   0  0  0  0  0  0  0  0  0  0  0  0
    4.3587   -2.1621   -1.2137 H   0  0  0  0  0  0  0  0  0  0  0  0
   -0.9076    0.7151    2.3346 H   0  0  0  0  0  0  0  0  0  0  0  0
    0.5903   -0.1471    2.0907 H   0  0  0  0  0  0  0  0  0  0  0  0
   -0.9051   -1.0331    2.1623 H   0  0  0  0  0  0  0  0  0  0  0  0
   -1.0149   -0.9715   -2.5160 H   0  0  0  0  0  0  0  0  0  0  0  0
    0.6121   -1.5894   -2.6836 H   0  0  0  0  0  0  0  0  0  0  0  0
    0.3439    0.1397   -2.5292 H   0  0  0  0  0  0  0  0  0  0  0  0
    2.0505   -2.9372   -0.6415 H   0  0  0  0  0  0  0  0  0  0  0  0
    6.6191    1.3362   -0.9202 H   0  0  0  0  0  0  0  0  0  0  0  0
    3.4988   -0.1669   -2.4026 H   0  0  0  0  0  0  0  0  0  0  0  0
    4.9439    0.8182   -2.2028 H   0  0  0  0  0  0  0  0  0  0  0  0
    3.3858    1.5890   -2.3397 H   0  0  0  0  0  0  0  0  0  0  0  0
    6.0481    2.9770    0.8988 H   0  0  0  0  0  0  0  0  0  0  0  0
    5.5576    1.6591    1.9221 H   0  0  0  0  0  0  0  0  0  0  0  0
   -4.5309   -1.3154    0.0486 H   0  0  0  0  0  0  0  0  0  0  0  0
    7.7190   -1.1705    1.5189 H   0  0  0  0  0  0  0  0  0  0  0  0
    6.2627   -2.1559    1.6081 H   0  0  0  0  0  0  0  0  0  0  0  0
    6.3079   -0.5788    2.4058 H   0  0  0  0  0  0  0  0  0  0  0  0
    7.8063   -1.0701   -0.9932 H   0  0  0  0  0  0  0  0  0  0  0  0
    6.3171   -0.9222   -1.9247 H   0  0  0  0  0  0  0  0  0  0  0  0
    6.5748   -2.3167   -0.8630 H   0  0  0  0  0  0  0  0  0  0  0  0
   -3.0925    2.1819   -0.2258 H   0  0  0  0  0  0  0  0  0  0  0  0
   -2.3359    2.1389    1.3813 H   0  0  0  0  0  0  0  0  0  0  0  0
   -4.0442    2.1969    1.2587 H   0  0  0  0  0  0  0  0  0  0  0  0
   -5.5404    0.8749    1.9256 H   0  0  0  0  0  0  0  0  0  0  0  0
   -7.7594    0.4477    1.0181 H   0  0  0  0  0  0  0  0  0  0  0  0
    8.1309    2.1228    0.5210 H   0  0  0  0  0  0  0  0  0  0  0  0
   -6.0496    2.6157    0.5053 H   0  0  0  0  0  0  0  0  0  0  0  0
   -7.5374    2.6507   -0.4405 H   0  0  0  0  0  0  0  0  0  0  0  0
   -5.9584    2.8769   -1.2258 H   0  0  0  0  0  0  0  0  0  0  0  0
   -8.1739    0.6077   -1.9490 H   0  0  0  0  0  0  0  0  0  0  0  0
   -6.8914   -0.5729   -2.3165 H   0  0  0  0  0  0  0  0  0  0  0  0
   -6.7078    1.0859   -2.8301 H   0  0  0  0  0  0  0  0  0  0  0  0
   -6.4707   -0.9970    2.8641 H   0  0  0  0  0  0  0  0  0  0  0  0
   -6.5423   -1.7200   -0.3880 H   0  0  0  0  0  0  0  0  0  0  0  0
  1 26  1  0  0  0  0
  1 32  1  0  0  0  0
  2 23  1  0  0  0  0
  2 76  1  0  0  0  0
  3 30  1  0  0  0  0
  3 83  1  0  0  0  0
  4 31  1  0  0  0  0
  4 84  1  0  0  0  0
  5  6  1  0  0  0  0
  5  9  1  0  0  0  0
  5 11  1  0  0  0  0
  5 20  1  0  0  0  0
  6 10  1  0  0  0  0
  6 13  1  0  0  0  0
  6 21  1  0  0  0  0
  7  8  1  0  0  0  0
  7 10  1  0  0  0  0
  7 14  1  0  0  0  0
  7 35  1  0  0  0  0
  8 12  1  0  0  0  0
  8 18  1  0  0  0  0
  8 24  1  0  0  0  0
  9 15  1  0  0  0  0
  9 17  1  0  0  0  0
  9 36  1  0  0  0  0
 10 22  2  0  0  0  0
 11 14  1  0  0  0  0
 11 37  1  0  0  0  0
 11 38  1  0  0  0  0
 12 16  1  0  0  0  0
 12 19  1  0  0  0  0
 12 39  1  0  0  0  0
 13 15  1  0  0  0  0
 13 40  1  0  0  0  0
 13 41  1  0  0  0  0
 14 42  1  0  0  0  0
 14 43  1  0  0  0  0
 15 44  1  0  0  0  0
 15 45  1  0  0  0  0
 16 23  1  0  0  0  0
 16 27  1  0  0  0  0
 16 28  1  0  0  0  0
 17 26  1  0  0  0  0
 17 29  1  0  0  0  0
 17 46  1  0  0  0  0
 18 25  1  0  0  0  0
 18 47  1  0  0  0  0
 18 48  1  0  0  0  0
 19 22  1  0  0  0  0
 19 49  1  0  0  0  0
 19 50  1  0  0  0  0
 20 51  1  0  0  0  0
 20 52  1  0  0  0  0
 20 53  1  0  0  0  0
 21 54  1  0  0  0  0
 21 55  1  0  0  0  0
 21 56  1  0  0  0  0
 22 57  1  0  0  0  0
 23 25  1  0  0  0  0
 23 58  1  0  0  0  0
 24 59  1  0  0  0  0
 24 60  1  0  0  0  0
 24 61  1  0  0  0  0
 25 62  1  0  0  0  0
 25 63  1  0  0  0  0
 26 30  1  0  0  0  0
 26 64  1  0  0  0  0
 27 65  1  0  0  0  0
 27 66  1  0  0  0  0
 27 67  1  0  0  0  0
 28 68  1  0  0  0  0
 28 69  1  0  0  0  0
 28 70  1  0  0  0  0
 29 71  1  0  0  0  0
 29 72  1  0  0  0  0
 29 73  1  0  0  0  0
 30 31  1  0  0  0  0
 30 74  1  0  0  0  0
 31 32  1  0  0  0  0
 31 75  1  0  0  0  0
 32 33  1  0  0  0  0
 32 34  1  0  0  0  0
 33 77  1  0  0  0  0
 33 78  1  0  0  0  0
 33 79  1  0  0  0  0
 34 80  1  0  0  0  0
 34 81  1  0  0  0  0
 34 82  1  0  0  0  0
M  END
> <PUBCHEM_COMPOUND_CID>
101297598

> <PUBCHEM_CONFORMER_RMSD>
0.8

> <PUBCHEM_CONFORMER_DIVERSEORDER>
1
9
5
8
4
3
10
6
7
2

> <PUBCHEM_MMFF94_PARTIAL_CHARGES>
18
1 -0.56
10 -0.28
19 0.14
2 -0.68
22 -0.29
23 0.28
26 0.28
3 -0.68
30 0.28
31 0.28
32 0.28
4 -0.68
57 0.15
6 0.14
7 0.14
76 0.4
83 0.4
84 0.4

> <PUBCHEM_EFFECTIVE_ROTOR_COUNT>
5

> <PUBCHEM_PHARMACOPHORE_FEATURES>
15
1 1 acceptor
1 2 acceptor
1 2 donor
1 29 hydrophobe
1 3 acceptor
1 3 donor
1 4 acceptor
1 4 donor
3 16 27 28 hydrophobe
3 32 33 34 hydrophobe
5 1 26 30 31 32 rings
5 5 6 9 13 15 rings
6 5 6 7 10 11 14 rings
6 7 8 10 12 19 22 rings
6 8 12 16 18 23 25 rings

> <PUBCHEM_HEAVY_ATOM_COUNT>
34

> <PUBCHEM_ATOM_DEF_STEREO_COUNT>
9

> <PUBCHEM_ATOM_UDEF_STEREO_COUNT>
2

> <PUBCHEM_BOND_DEF_STEREO_COUNT>
0

> <PUBCHEM_BOND_UDEF_STEREO_COUNT>
0

> <PUBCHEM_ISOTOPIC_ATOM_COUNT>
0

> <PUBCHEM_COMPONENT_COUNT>
1

> <PUBCHEM_CACTVS_TAUTO_COUNT>
1

> <PUBCHEM_CONFORMER_ID>
0609ADBE00000001

> <PUBCHEM_MMFF94_ENERGY>
162.709

> <PUBCHEM_FEATURE_SELFOVERLAP>
76.226

> <PUBCHEM_SHAPE_FINGERPRINT>
10 15 18334576858421377466
10835480 77 18337388241535744437
10906281 52 17489322888074725259
11135926 11 18271804593547826727
11578080 2 16843582002799840274
11719270 70 18335702728374647474
12107698 1 15502376729501411014
12236239 1 17703791414111522086
12838862 33 18341597240666023480
13533116 47 16917074309378434526
13782708 43 17023475247434939787
13811026 1 18260545619926982765
13914758 101 18260546693025559897
14251764 18 17846498144813738912
14294032 229 16917067728707808585
14394314 77 18202291264831922929
14849402 71 17203045295755044713
14856354 85 15410891882193564821
15131766 46 16808437256243247420
15142383 8 17822286882202250196
15183329 4 18201999923612887429
15301273 46 17603865590071971702
15461852 350 17775000219490237325
1577012 14 17131841945000008625
15849732 13 18335420179344344052
16090146 7 14404911361241605510
18608769 82 18270400615904354307
19319366 153 18130501959767425726
19377110 9 17561091276110083017
19841028 212 16878495723789113658
20157964 124 18273216391920276558
20511986 3 18200863058934346902
21033648 29 18040716961629783741
21150785 3 16415477177310570949
21267235 1 18340215111457661830
21792938 703 17060059298100529983
21859007 373 17968366836752394261
23516275 137 12894536389347283869
23559900 14 18059286677287189897
23569917 315 18271815617896211927
23569943 247 16986048790749375510
24771293 8 17988927773127897400
249057 3 18272934934408427726
255183 451 17557997139401815534
2838139 119 18341608218328184005
335352 9 18342741806854006838
34797466 226 17132123454763991620
350125 39 18411698764362317652
3633792 109 18201158745678050865
397830 11 18042696172242449747
4073 2 18113904904797183202
4093350 32 16988567883994764686
4169191 19 18343868826829772977
4340502 62 18260552229549770794
5104073 3 18338246942435762241
5265222 85 12103552109133324789
59755656 215 18336548231341259030
6009941 240 17603586331050472793
6086070 43 17346032402117360354
6371009 1 18272370866803939929
6691757 9 17561088050384700927

> <PUBCHEM_SHAPE_MULTIPOLES>
676.23
21.47
2.13
1.51
7.75
0.1
0.09
3.92
-1.62
-0.98
0.04
1.07
-0.14
0.97

> <PUBCHEM_SHAPE_SELFOVERLAP>
1437.904

> <PUBCHEM_SHAPE_VOLUME>
378.3

> <PUBCHEM_COORDINATE_TYPE>
2
5
10

$$$$
