5319087
  -OEChem-02172602443D

 72 74  0     1  0  0  0  0  0999 V2000
    2.9574   -1.4598    0.2962 O   0  0  0  0  0  0  0  0  0  0  0  0
    3.3084    0.6892   -0.5448 O   0  0  0  0  0  0  0  0  0  0  0  0
    1.0460   -0.6857    1.3846 O   0  0  0  0  0  0  0  0  0  0  0  0
    5.3495   -1.2331    1.8113 O   0  0  0  0  0  0  0  0  0  0  0  0
    7.2695    0.5918    0.6498 O   0  0  0  0  0  0  0  0  0  0  0  0
    5.8723    1.2959   -1.6481 O   0  0  0  0  0  0  0  0  0  0  0  0
    2.1364    3.3152   -1.2213 O   0  0  0  0  0  0  0  0  0  0  0  0
   -3.0318   -0.6957   -1.7372 O   0  0  0  0  0  0  0  0  0  0  0  0
   -2.7690   -3.0395    1.7888 O   0  0  0  0  0  0  0  0  0  0  0  0
   -3.3998   -2.9474   -1.3930 O   0  0  0  0  0  0  0  0  0  0  0  0
   -3.2530   -0.8024    1.4409 O   0  0  0  0  0  0  0  0  0  0  0  0
   -1.1546    3.6766   -0.0067 O   0  0  0  0  0  0  0  0  0  0  0  0
   -2.7834    4.2631    2.1681 O   0  0  0  0  0  0  0  0  0  0  0  0
    0.9108   -2.6924   -0.0616 C   0  0  2  0  0  0  0  0  0  0  0  0
   -0.6327   -2.5732   -0.1460 C   0  0  1  0  0  0  0  0  0  0  0  0
    1.5424   -1.3062    0.1892 C   0  0  2  0  0  0  0  0  0  0  0  0
    3.5992   -0.2061    0.5275 C   0  0  2  0  0  0  0  0  0  0  0  0
    5.1042   -0.4618    0.6354 C   0  0  1  0  0  0  0  0  0  0  0  0
    5.8717    0.8565    0.7294 C   0  0  2  0  0  0  0  0  0  0  0  0
    5.4534    1.8163   -0.3850 C   0  0  2  0  0  0  0  0  0  0  0  0
    1.5273   -3.4012   -1.2697 C   0  0  0  0  0  0  0  0  0  0  0  0
    3.9287    1.9718   -0.3900 C   0  0  1  0  0  0  0  0  0  0  0  0
   -1.1052   -1.6880    0.9722 C   0  0  0  0  0  0  0  0  0  0  0  0
   -1.1456   -2.0404   -1.4890 C   0  0  0  0  0  0  0  0  0  0  0  0
   -0.2881   -0.8626    1.6361 C   0  0  0  0  0  0  0  0  0  0  0  0
    3.4394    2.8549   -1.5319 C   0  0  0  0  0  0  0  0  0  0  0  0
    0.9916   -4.8115   -1.4121 C   0  0  0  0  0  0  0  0  0  0  0  0
   -2.6495   -1.9905   -1.5271 C   0  0  0  0  0  0  0  0  0  0  0  0
   -2.4974   -1.7616    1.4204 C   0  0  0  0  0  0  0  0  0  0  0  0
   -4.4441   -0.4730   -1.8011 C   0  0  0  0  0  0  0  0  0  0  0  0
   -4.7224    1.0073   -2.0381 C   0  0  0  0  0  0  0  0  0  0  0  0
   -4.1023   -3.2738    2.2536 C   0  0  0  0  0  0  0  0  0  0  0  0
   -4.2021    1.8754   -0.9182 C   0  0  0  0  0  0  0  0  0  0  0  0
   -2.9043    2.3835   -0.9747 C   0  0  0  0  0  0  0  0  0  0  0  0
   -5.0194    2.1698    0.1731 C   0  0  0  0  0  0  0  0  0  0  0  0
   -2.4238    3.1861    0.0600 C   0  0  0  0  0  0  0  0  0  0  0  0
   -4.5387    2.9722    1.2079 C   0  0  0  0  0  0  0  0  0  0  0  0
   -3.2410    3.4805    1.1513 C   0  0  0  0  0  0  0  0  0  0  0  0
    1.1424   -3.3055    0.8241 H   0  0  0  0  0  0  0  0  0  0  0  0
   -1.0487   -3.5773    0.0092 H   0  0  0  0  0  0  0  0  0  0  0  0
    1.3161   -0.6500   -0.6609 H   0  0  0  0  0  0  0  0  0  0  0  0
    3.2345    0.2166    1.4728 H   0  0  0  0  0  0  0  0  0  0  0  0
    5.4615   -1.0575   -0.2128 H   0  0  0  0  0  0  0  0  0  0  0  0
    5.6903    1.3192    1.7077 H   0  0  0  0  0  0  0  0  0  0  0  0
    5.9541    2.7819   -0.2498 H   0  0  0  0  0  0  0  0  0  0  0  0
    2.6138   -3.4734   -1.1384 H   0  0  0  0  0  0  0  0  0  0  0  0
    1.3731   -2.8358   -2.1948 H   0  0  0  0  0  0  0  0  0  0  0  0
    3.5934    2.3986    0.5648 H   0  0  0  0  0  0  0  0  0  0  0  0
   -0.8471   -2.6757   -2.3289 H   0  0  0  0  0  0  0  0  0  0  0  0
   -0.7371   -1.0436   -1.6958 H   0  0  0  0  0  0  0  0  0  0  0  0
   -0.5900   -0.2529    2.4775 H   0  0  0  0  0  0  0  0  0  0  0  0
    4.0793    3.7349   -1.6501 H   0  0  0  0  0  0  0  0  0  0  0  0
    3.3904    2.3061   -2.4779 H   0  0  0  0  0  0  0  0  0  0  0  0
    1.1248   -5.3832   -0.4879 H   0  0  0  0  0  0  0  0  0  0  0  0
    1.5335   -5.3357   -2.2066 H   0  0  0  0  0  0  0  0  0  0  0  0
   -0.0683   -4.8308   -1.6797 H   0  0  0  0  0  0  0  0  0  0  0  0
    5.0412   -0.7211    2.5783 H   0  0  0  0  0  0  0  0  0  0  0  0
    7.7322    1.4455    0.7022 H   0  0  0  0  0  0  0  0  0  0  0  0
    5.7583    1.9972   -2.3113 H   0  0  0  0  0  0  0  0  0  0  0  0
    1.8456    3.8761   -1.9605 H   0  0  0  0  0  0  0  0  0  0  0  0
   -4.9086   -0.8054   -0.8650 H   0  0  0  0  0  0  0  0  0  0  0  0
   -4.8609   -1.0555   -2.6310 H   0  0  0  0  0  0  0  0  0  0  0  0
   -5.8003    1.1684   -2.1602 H   0  0  0  0  0  0  0  0  0  0  0  0
   -4.2536    1.3257   -2.9780 H   0  0  0  0  0  0  0  0  0  0  0  0
   -4.2982   -2.6824    3.1531 H   0  0  0  0  0  0  0  0  0  0  0  0
   -4.8251   -3.0332    1.4679 H   0  0  0  0  0  0  0  0  0  0  0  0
   -4.1943   -4.3342    2.5027 H   0  0  0  0  0  0  0  0  0  0  0  0
   -2.2671    2.1535   -1.8254 H   0  0  0  0  0  0  0  0  0  0  0  0
   -6.0313    1.7777    0.2293 H   0  0  0  0  0  0  0  0  0  0  0  0
   -5.1858    3.1929    2.0526 H   0  0  0  0  0  0  0  0  0  0  0  0
   -0.7370    3.3663   -0.8286 H   0  0  0  0  0  0  0  0  0  0  0  0
   -3.4849    4.3583    2.8350 H   0  0  0  0  0  0  0  0  0  0  0  0
  1 16  1  0  0  0  0
  1 17  1  0  0  0  0
  2 17  1  0  0  0  0
  2 22  1  0  0  0  0
  3 16  1  0  0  0  0
  3 25  1  0  0  0  0
  4 18  1  0  0  0  0
  4 57  1  0  0  0  0
  5 19  1  0  0  0  0
  5 58  1  0  0  0  0
  6 20  1  0  0  0  0
  6 59  1  0  0  0  0
  7 26  1  0  0  0  0
  7 60  1  0  0  0  0
  8 28  1  0  0  0  0
  8 30  1  0  0  0  0
  9 29  1  0  0  0  0
  9 32  1  0  0  0  0
 10 28  2  0  0  0  0
 11 29  2  0  0  0  0
 12 36  1  0  0  0  0
 12 71  1  0  0  0  0
 13 38  1  0  0  0  0
 13 72  1  0  0  0  0
 14 15  1  0  0  0  0
 14 16  1  0  0  0  0
 14 21  1  0  0  0  0
 14 39  1  0  0  0  0
 15 23  1  0  0  0  0
 15 24  1  0  0  0  0
 15 40  1  0  0  0  0
 16 41  1  0  0  0  0
 17 18  1  0  0  0  0
 17 42  1  0  0  0  0
 18 19  1  0  0  0  0
 18 43  1  0  0  0  0
 19 20  1  0  0  0  0
 19 44  1  0  0  0  0
 20 22  1  0  0  0  0
 20 45  1  0  0  0  0
 21 27  1  0  0  0  0
 21 46  1  0  0  0  0
 21 47  1  0  0  0  0
 22 26  1  0  0  0  0
 22 48  1  0  0  0  0
 23 25  2  0  0  0  0
 23 29  1  0  0  0  0
 24 28  1  0  0  0  0
 24 49  1  0  0  0  0
 24 50  1  0  0  0  0
 25 51  1  0  0  0  0
 26 52  1  0  0  0  0
 26 53  1  0  0  0  0
 27 54  1  0  0  0  0
 27 55  1  0  0  0  0
 27 56  1  0  0  0  0
 30 31  1  0  0  0  0
 30 61  1  0  0  0  0
 30 62  1  0  0  0  0
 31 33  1  0  0  0  0
 31 63  1  0  0  0  0
 31 64  1  0  0  0  0
 32 65  1  0  0  0  0
 32 66  1  0  0  0  0
 32 67  1  0  0  0  0
 33 34  2  0  0  0  0
 33 35  1  0  0  0  0
 34 36  1  0  0  0  0
 34 68  1  0  0  0  0
 35 37  2  0  0  0  0
 35 69  1  0  0  0  0
 36 38  2  0  0  0  0
 37 38  1  0  0  0  0
 37 70  1  0  0  0  0
M  END
> <PUBCHEM_COMPOUND_CID>
5319087

> <PUBCHEM_CONFORMER_RMSD>
1.4

> <PUBCHEM_CONFORMER_DIVERSEORDER>
1
88
191
137
106
17
96
68
104
169
64
135
94
23
118
110
115
159
122
121
149
155
127
112
172
21
119
105
108
41
5
54
60
174
99
76
53
67
40
24
151
73
86
134
109
111
8
179
128
114
194
29
101
47
143
19
55
113
129
63
33
126
27
52
69
15
145
92
175
98
133
150
181
22
123
97
177
80
72
70
6
85
75
188
180
120
116
185
62
130
65
50
141
56
171
182
9
87
28
170
138
161
173
184
153
164
146
32
61
90
178
20
183
132
39
18
166
168
78
93
49
7
186
190
124
51
46
103
157
89
71
26
147
77
152
82
148
81
140
31
11
142
79
59
12
10
83
154
2
165
91
162
102
84
42
34
163
3
187
35
30
44
74
38
125
167
192
107
144
58
136
43
25
66
131
4
45
14
158
95
189
48
176
36
16
57
13
100
160
193
37
139
117
156

> <PUBCHEM_MMFF94_PARTIAL_CHARGES>
45
1 -0.56
10 -0.57
11 -0.57
12 -0.53
13 -0.53
15 0.14
16 0.56
17 0.56
18 0.28
19 0.28
2 -0.56
20 0.28
22 0.28
23 -0.12
24 0.06
25 -0.07
26 0.28
28 0.66
29 0.71
3 -0.36
30 0.28
31 0.14
32 0.28
33 -0.14
34 -0.15
35 -0.15
36 0.08
37 -0.15
38 0.08
4 -0.68
5 -0.68
51 0.15
57 0.4
58 0.4
59 0.4
6 -0.68
60 0.4
68 0.15
69 0.15
7 -0.68
70 0.15
71 0.45
72 0.45
8 -0.43
9 -0.43

> <PUBCHEM_EFFECTIVE_ROTOR_COUNT>
14

> <PUBCHEM_PHARMACOPHORE_FEATURES>
19
1 1 acceptor
1 10 acceptor
1 11 acceptor
1 12 donor
1 13 donor
1 2 acceptor
1 27 hydrophobe
1 3 acceptor
1 4 acceptor
1 4 donor
1 5 acceptor
1 5 donor
1 6 acceptor
1 6 donor
1 7 acceptor
1 7 donor
6 2 17 18 19 20 22 rings
6 3 14 15 16 23 25 rings
6 33 34 35 36 37 38 rings

> <PUBCHEM_HEAVY_ATOM_COUNT>
38

> <PUBCHEM_ATOM_DEF_STEREO_COUNT>
6

> <PUBCHEM_ATOM_UDEF_STEREO_COUNT>
2

> <PUBCHEM_BOND_DEF_STEREO_COUNT>
0

> <PUBCHEM_BOND_UDEF_STEREO_COUNT>
0

> <PUBCHEM_ISOTOPIC_ATOM_COUNT>
0

> <PUBCHEM_COMPONENT_COUNT>
1

> <PUBCHEM_CACTVS_TAUTO_COUNT>
18

> <PUBCHEM_CONFORMER_ID>
005129AF00000001

> <PUBCHEM_MMFF94_ENERGY>
94.7807

> <PUBCHEM_FEATURE_SELFOVERLAP>
96.545

> <PUBCHEM_SHAPE_FINGERPRINT>
11513181 2 17984986985766756964
12156800 1 17830501385171157069
12788726 201 18197504132542361036
14713325 29 18413101771607340567
15163728 17 18412266116641608102
15297060 5 18201716241139375856
15775530 1 18195268640551200091
15968369 153 18200030771608407737
16112460 7 18336826377686913420
19309040 13 17558289639068555137
20764821 26 18341610472796163816
20775530 9 9981531475131302685
21033648 144 18186514384962924580
22121540 332 17054758419435828873
22122407 14 18186799223041348554
27425 322 18049162164646152897
3493558 16 18333730212755789655
4144715 1 18040442100866422834
463206 1 18408884035812292916
469060 322 18128539456435187983
50150288 127 17765759983869450641
6287921 2 17839179615358079621
6700243 42 17557162888409879454

> <PUBCHEM_SHAPE_MULTIPOLES>
705.72
13.28
6.04
2.12
16.61
0.07
-0.16
-8.88
-0.45
-4.27
0.06
-1.87
0.65
-0.98

> <PUBCHEM_SHAPE_SELFOVERLAP>
1477.377

> <PUBCHEM_SHAPE_VOLUME>
392.3

> <PUBCHEM_COORDINATE_TYPE>
2
5
10

$$$$
