141253
  -OEChem-02172602473D

 25 26  0     1  0  0  0  0  0999 V2000
    2.3084   -0.3550   -1.2231 O   0  5  0  0  0  0  0  0  0  0  0  0
    1.3100    0.0599   -0.5424 N   0  3  0  0  0  0  0  0  0  0  0  0
    0.6574    1.0898   -0.9007 N   0  0  0  0  0  0  0  0  0  0  0  0
    0.9992   -0.6886    0.7010 C   0  0  1  0  0  0  0  0  0  0  0  0
   -0.5316    1.4661   -0.1259 C   0  0  2  0  0  0  0  0  0  0  0  0
    0.6487    0.2922    1.7956 C   0  0  0  0  0  0  0  0  0  0  0  0
   -0.4016    1.2980    1.3825 C   0  0  0  0  0  0  0  0  0  0  0  0
    0.0268   -1.8289    0.4090 C   0  0  0  0  0  0  0  0  0  0  0  0
   -1.7884    0.8415   -0.7428 C   0  0  0  0  0  0  0  0  0  0  0  0
   -1.4563   -1.5103    0.2361 C   0  0  0  0  0  0  0  0  0  0  0  0
   -1.7726   -0.6648   -0.9892 C   0  0  0  0  0  0  0  0  0  0  0  0
    1.9483   -1.1612    0.9940 H   0  0  0  0  0  0  0  0  0  0  0  0
   -0.6557    2.5467   -0.2839 H   0  0  0  0  0  0  0  0  0  0  0  0
    1.5586    0.8469    2.0641 H   0  0  0  0  0  0  0  0  0  0  0  0
    0.3384   -0.2321    2.7068 H   0  0  0  0  0  0  0  0  0  0  0  0
   -1.3695    1.0491    1.8326 H   0  0  0  0  0  0  0  0  0  0  0  0
   -0.1310    2.2651    1.8279 H   0  0  0  0  0  0  0  0  0  0  0  0
    0.0974   -2.5359    1.2471 H   0  0  0  0  0  0  0  0  0  0  0  0
    0.3728   -2.3844   -0.4730 H   0  0  0  0  0  0  0  0  0  0  0  0
   -1.9665    1.3217   -1.7148 H   0  0  0  0  0  0  0  0  0  0  0  0
   -2.6591    1.0957   -0.1247 H   0  0  0  0  0  0  0  0  0  0  0  0
   -1.8788   -1.0734    1.1462 H   0  0  0  0  0  0  0  0  0  0  0  0
   -1.9699   -2.4733    0.1112 H   0  0  0  0  0  0  0  0  0  0  0  0
   -1.0908   -0.9095   -1.8124 H   0  0  0  0  0  0  0  0  0  0  0  0
   -2.7741   -0.9409   -1.3447 H   0  0  0  0  0  0  0  0  0  0  0  0
  1  2  1  0  0  0  0
  2  3  2  0  0  0  0
  2  4  1  0  0  0  0
  3  5  1  0  0  0  0
  4  6  1  0  0  0  0
  4  8  1  0  0  0  0
  4 12  1  0  0  0  0
  5  7  1  0  0  0  0
  5  9  1  0  0  0  0
  5 13  1  0  0  0  0
  6  7  1  0  0  0  0
  6 14  1  0  0  0  0
  6 15  1  0  0  0  0
  7 16  1  0  0  0  0
  7 17  1  0  0  0  0
  8 10  1  0  0  0  0
  8 18  1  0  0  0  0
  8 19  1  0  0  0  0
  9 11  1  0  0  0  0
  9 20  1  0  0  0  0
  9 21  1  0  0  0  0
 10 11  1  0  0  0  0
 10 22  1  0  0  0  0
 10 23  1  0  0  0  0
 11 24  1  0  0  0  0
 11 25  1  0  0  0  0
M  CHG  2   1  -1   2   1
M  END
> <PUBCHEM_COMPOUND_CID>
141253

> <PUBCHEM_CONFORMER_RMSD>
0.4

> <PUBCHEM_CONFORMER_DIVERSEORDER>
1
4
2
3

> <PUBCHEM_MMFF94_PARTIAL_CHARGES>
5
1 -0.63
2 0.74
3 -0.45
4 0.1
5 0.25

> <PUBCHEM_EFFECTIVE_ROTOR_COUNT>
1.2

> <PUBCHEM_PHARMACOPHORE_FEATURES>
2
1 1 anion
6 2 3 4 5 6 7 rings

> <PUBCHEM_HEAVY_ATOM_COUNT>
11

> <PUBCHEM_ATOM_DEF_STEREO_COUNT>
0

> <PUBCHEM_ATOM_UDEF_STEREO_COUNT>
2

> <PUBCHEM_BOND_DEF_STEREO_COUNT>
0

> <PUBCHEM_BOND_UDEF_STEREO_COUNT>
0

> <PUBCHEM_ISOTOPIC_ATOM_COUNT>
0

> <PUBCHEM_COMPONENT_COUNT>
1

> <PUBCHEM_CACTVS_TAUTO_COUNT>
1

> <PUBCHEM_CONFORMER_ID>
000227C500000001

> <PUBCHEM_MMFF94_ENERGY>
32.025

> <PUBCHEM_FEATURE_SELFOVERLAP>
10.148

> <PUBCHEM_SHAPE_FINGERPRINT>
10702982 57 17409963252311110528
12423570 1 13507028570856484952
13024252 1 15504094252441984014
137420 1 16408673227284965984
14817 1 13745083017337160451
16945 1 18336819801801345711
18185500 45 18047169878992398135
20653085 51 17313399940929726990
21040471 1 18119504592989170407
241688 4 16820779943736312123
29004967 10 16630229377331697770
5084963 1 17616801142208606423

> <PUBCHEM_SHAPE_MULTIPOLES>
210.54
2.14
1.78
1.48
0.34
0.23
0.15
0.34
-0.74
0.41
0.3
-0.62
-0.24
0.15

> <PUBCHEM_SHAPE_SELFOVERLAP>
428.124

> <PUBCHEM_SHAPE_VOLUME>
119.8

> <PUBCHEM_COORDINATE_TYPE>
2
5
10

$$$$
