138500
  -OEChem-02172602573D

 25 25  0     0  0  0  0  0  0999 V2000
    2.0980    0.7714   -0.0048 O   0  0  0  0  0  0  0  0  0  0  0  0
   -3.6860   -1.6053    0.0007 O   0  0  0  0  0  0  0  0  0  0  0  0
   -4.3001    0.5832    0.0022 O   0  0  0  0  0  0  0  0  0  0  0  0
    4.4463    0.2111    0.0128 C   0  0  0  0  0  0  0  0  0  0  0  0
    3.0277   -0.3370   -0.0054 C   0  0  0  0  0  0  0  0  0  0  0  0
    0.7609    0.5178   -0.0022 C   0  0  0  0  0  0  0  0  0  0  0  0
    5.4811   -0.8996   -0.0019 C   0  0  0  0  0  0  0  0  0  0  0  0
   -0.1494    1.5748   -0.0015 C   0  0  0  0  0  0  0  0  0  0  0  0
    0.3006   -0.7990   -0.0016 C   0  0  0  0  0  0  0  0  0  0  0  0
   -1.9801   -0.0015    0.0005 C   0  0  0  0  0  0  0  0  0  0  0  0
   -1.5199    1.3152   -0.0001 C   0  0  0  0  0  0  0  0  0  0  0  0
   -1.0700   -1.0586   -0.0002 C   0  0  0  0  0  0  0  0  0  0  0  0
   -3.4090   -0.2725    0.0016 C   0  0  0  0  0  0  0  0  0  0  0  0
    4.5964    0.8713   -0.8499 H   0  0  0  0  0  0  0  0  0  0  0  0
    4.5861    0.8399    0.9003 H   0  0  0  0  0  0  0  0  0  0  0  0
    2.8833   -0.9358   -0.9126 H   0  0  0  0  0  0  0  0  0  0  0  0
    2.8704   -0.9505    0.8898 H   0  0  0  0  0  0  0  0  0  0  0  0
    5.3831   -1.5155   -0.9015 H   0  0  0  0  0  0  0  0  0  0  0  0
    6.4908   -0.4774    0.0120 H   0  0  0  0  0  0  0  0  0  0  0  0
    5.3725   -1.5487    0.8727 H   0  0  0  0  0  0  0  0  0  0  0  0
    0.2035    2.6025   -0.0024 H   0  0  0  0  0  0  0  0  0  0  0  0
    0.9588   -1.6612   -0.0037 H   0  0  0  0  0  0  0  0  0  0  0  0
   -2.2126    2.1527    0.0004 H   0  0  0  0  0  0  0  0  0  0  0  0
   -1.3858   -2.0982   -0.0001 H   0  0  0  0  0  0  0  0  0  0  0  0
   -4.6519   -1.7772    0.0009 H   0  0  0  0  0  0  0  0  0  0  0  0
  1  5  1  0  0  0  0
  1  6  1  0  0  0  0
  2 13  1  0  0  0  0
  2 25  1  0  0  0  0
  3 13  2  0  0  0  0
  4  5  1  0  0  0  0
  4  7  1  0  0  0  0
  4 14  1  0  0  0  0
  4 15  1  0  0  0  0
  5 16  1  0  0  0  0
  5 17  1  0  0  0  0
  6  8  2  0  0  0  0
  6  9  1  0  0  0  0
  7 18  1  0  0  0  0
  7 19  1  0  0  0  0
  7 20  1  0  0  0  0
  8 11  1  0  0  0  0
  8 21  1  0  0  0  0
  9 12  2  0  0  0  0
  9 22  1  0  0  0  0
 10 11  2  0  0  0  0
 10 12  1  0  0  0  0
 10 13  1  0  0  0  0
 11 23  1  0  0  0  0
 12 24  1  0  0  0  0
M  END
> <PUBCHEM_COMPOUND_CID>
138500

> <PUBCHEM_CONFORMER_RMSD>
0.6

> <PUBCHEM_CONFORMER_DIVERSEORDER>
1
13
12
2
8
3
5
11
6
14
7
4
9
10

> <PUBCHEM_MMFF94_PARTIAL_CHARGES>
16
1 -0.36
10 0.09
11 -0.15
12 -0.15
13 0.63
2 -0.65
21 0.15
22 0.15
23 0.15
24 0.15
25 0.5
3 -0.57
5 0.28
6 0.08
8 -0.15
9 -0.15

> <PUBCHEM_EFFECTIVE_ROTOR_COUNT>
4

> <PUBCHEM_PHARMACOPHORE_FEATURES>
6
1 1 acceptor
1 2 acceptor
1 3 acceptor
1 7 hydrophobe
3 2 3 13 anion
6 6 8 9 10 11 12 rings

> <PUBCHEM_HEAVY_ATOM_COUNT>
13

> <PUBCHEM_ATOM_DEF_STEREO_COUNT>
0

> <PUBCHEM_ATOM_UDEF_STEREO_COUNT>
0

> <PUBCHEM_BOND_DEF_STEREO_COUNT>
0

> <PUBCHEM_BOND_UDEF_STEREO_COUNT>
0

> <PUBCHEM_ISOTOPIC_ATOM_COUNT>
0

> <PUBCHEM_COMPONENT_COUNT>
1

> <PUBCHEM_CACTVS_TAUTO_COUNT>
1

> <PUBCHEM_CONFORMER_ID>
00021D0400000001

> <PUBCHEM_MMFF94_ENERGY>
36.0616

> <PUBCHEM_FEATURE_SELFOVERLAP>
30.504

> <PUBCHEM_SHAPE_FINGERPRINT>
10968037 39 18335143111716105422
11062470 55 11095885968900872576
11401426 45 18413103961639137325
12032990 46 18410577326715200227
12119455 92 17060336310057365660
13214271 11 18272650143194465375
13288520 33 18412266108383397742
13690532 89 18335421270598287742
13760787 5 18187089493942347893
13862211 1 18411414029241860679
14115302 16 17749681769859687702
14325111 11 18338799021832237765
14911166 2 18408597068040882845
14993402 34 16805323305731132574
17804303 29 18342177790756944856
17834072 33 18334580178926833100
18186145 218 16732978781754769109
187816 3 17458064867296716553
200 152 17846775208758803388
21267235 1 18409455812292090475
22485316 2 18411134744972316306
2297311 6 18202011997720862252
23402539 116 18271800220326386447
23402655 69 18268695136178614653
23559900 14 18412260671192476688
42 15 18411419501578328194
43471831 8 18262515880076308138
5104073 3 18411982498512705096
53655031 270 18408604734061581968
7364860 26 18268430325184615784

> <PUBCHEM_SHAPE_MULTIPOLES>
249.93
9.2
1.4
0.59
8.43
0.08
0
-2.54
0.01
-0.64
0
0.05
0
0

> <PUBCHEM_SHAPE_SELFOVERLAP>
511.023

> <PUBCHEM_SHAPE_VOLUME>
145.8

> <PUBCHEM_COORDINATE_TYPE>
2
5
10

$$$$
