95790147
  -OEChem-02172602273D

 43 42  0     1  0  0  0  0  0999 V2000
    1.7373    2.6778    0.6799 O   0  0  0  0  0  0  0  0  0  0  0  0
   -7.1734   -2.4166   -0.1003 O   0  0  0  0  0  0  0  0  0  0  0  0
    4.9698   -0.3603    0.1932 C   0  0  0  0  0  0  0  0  0  0  0  0
    4.0013    0.7916   -0.0850 C   0  0  0  0  0  0  0  0  0  0  0  0
    6.4327   -0.0011   -0.0874 C   0  0  0  0  0  0  0  0  0  0  0  0
    2.5361    0.4350    0.2013 C   0  0  0  0  0  0  0  0  0  0  0  0
    7.4529   -1.1098    0.1930 C   0  0  0  0  0  0  0  0  0  0  0  0
    1.5240    1.5359   -0.1454 C   0  0  1  0  0  0  0  0  0  0  0  0
    8.9078   -0.7708   -0.1393 C   0  0  0  0  0  0  0  0  0  0  0  0
    9.8716   -1.9197    0.1134 C   0  0  0  0  0  0  0  0  0  0  0  0
    0.1189    1.0589    0.0995 C   0  0  0  0  0  0  0  0  0  0  0  0
   -0.8308    1.0367   -0.8459 C   0  0  0  0  0  0  0  0  0  0  0  0
   -2.1465    0.5776   -0.5696 C   0  0  0  0  0  0  0  0  0  0  0  0
   -3.2597    0.1906   -0.3405 C   0  0  0  0  0  0  0  0  0  0  0  0
   -4.5314   -0.2519   -0.0773 C   0  0  0  0  0  0  0  0  0  0  0  0
   -7.0049   -1.1095    0.4411 C   0  0  1  0  0  0  0  0  0  0  0  0
   -5.6445   -0.6396    0.1530 C   0  0  0  0  0  0  0  0  0  0  0  0
   -8.0077   -0.1876   -0.1857 C   0  0  0  0  0  0  0  0  0  0  0  0
   -8.9537    0.4627    0.5021 C   0  0  0  0  0  0  0  0  0  0  0  0
    4.6900   -1.2259   -0.4194 H   0  0  0  0  0  0  0  0  0  0  0  0
    4.8724   -0.6686    1.2412 H   0  0  0  0  0  0  0  0  0  0  0  0
    4.0966    1.0937   -1.1352 H   0  0  0  0  0  0  0  0  0  0  0  0
    4.2875    1.6591    0.5218 H   0  0  0  0  0  0  0  0  0  0  0  0
    6.7027    0.8789    0.5099 H   0  0  0  0  0  0  0  0  0  0  0  0
    6.5239    0.2994   -1.1389 H   0  0  0  0  0  0  0  0  0  0  0  0
    2.4545    0.1828    1.2673 H   0  0  0  0  0  0  0  0  0  0  0  0
    2.2839   -0.4738   -0.3608 H   0  0  0  0  0  0  0  0  0  0  0  0
    7.1617   -2.0006   -0.3781 H   0  0  0  0  0  0  0  0  0  0  0  0
    7.3865   -1.3875    1.2525 H   0  0  0  0  0  0  0  0  0  0  0  0
    1.6588    1.8512   -1.1859 H   0  0  0  0  0  0  0  0  0  0  0  0
    9.2212    0.0956    0.4549 H   0  0  0  0  0  0  0  0  0  0  0  0
    8.9782   -0.4757   -1.1929 H   0  0  0  0  0  0  0  0  0  0  0  0
    9.6095   -2.7903   -0.4961 H   0  0  0  0  0  0  0  0  0  0  0  0
    9.8538   -2.2193    1.1660 H   0  0  0  0  0  0  0  0  0  0  0  0
   10.8938   -1.6214   -0.1395 H   0  0  0  0  0  0  0  0  0  0  0  0
   -0.1182    0.7261    1.1086 H   0  0  0  0  0  0  0  0  0  0  0  0
    1.7143    2.3908    1.6090 H   0  0  0  0  0  0  0  0  0  0  0  0
   -0.6114    1.3694   -1.8552 H   0  0  0  0  0  0  0  0  0  0  0  0
   -7.1591   -1.1776    1.5240 H   0  0  0  0  0  0  0  0  0  0  0  0
   -7.9729   -0.0554   -1.2651 H   0  0  0  0  0  0  0  0  0  0  0  0
   -6.5662   -3.0120    0.3719 H   0  0  0  0  0  0  0  0  0  0  0  0
   -9.6574    1.1101   -0.0096 H   0  0  0  0  0  0  0  0  0  0  0  0
   -9.0432    0.3630    1.5781 H   0  0  0  0  0  0  0  0  0  0  0  0
  1  8  1  0  0  0  0
  1 37  1  0  0  0  0
  2 16  1  0  0  0  0
  2 41  1  0  0  0  0
  3  4  1  0  0  0  0
  3  5  1  0  0  0  0
  3 20  1  0  0  0  0
  3 21  1  0  0  0  0
  4  6  1  0  0  0  0
  4 22  1  0  0  0  0
  4 23  1  0  0  0  0
  5  7  1  0  0  0  0
  5 24  1  0  0  0  0
  5 25  1  0  0  0  0
  6  8  1  0  0  0  0
  6 26  1  0  0  0  0
  6 27  1  0  0  0  0
  7  9  1  0  0  0  0
  7 28  1  0  0  0  0
  7 29  1  0  0  0  0
  8 11  1  0  0  0  0
  8 30  1  0  0  0  0
  9 10  1  0  0  0  0
  9 31  1  0  0  0  0
  9 32  1  0  0  0  0
 10 33  1  0  0  0  0
 10 34  1  0  0  0  0
 10 35  1  0  0  0  0
 11 12  2  0  0  0  0
 11 36  1  0  0  0  0
 12 13  1  0  0  0  0
 12 38  1  0  0  0  0
 13 14  3  0  0  0  0
 14 15  1  0  0  0  0
 15 17  3  0  0  0  0
 16 17  1  0  0  0  0
 16 18  1  0  0  0  0
 16 39  1  0  0  0  0
 18 19  2  0  0  0  0
 18 40  1  0  0  0  0
 19 42  1  0  0  0  0
 19 43  1  0  0  0  0
M  END
> <PUBCHEM_COMPOUND_CID>
95790147

> <PUBCHEM_CONFORMER_RMSD>
1

> <PUBCHEM_CONFORMER_DIVERSEORDER>
1
39
49
65
52
43
69
7
75
77
61
81
17
41
84
73
12
10
63
62
31
72
38
26
60
28
35
29
50
19
56
51
36
9
80
79
48
78
16
3
82
27
21
66
11
37
53
2
24
87
14
30
13
57
23
68
86
42
54
34
6
67
71
20
47
74
44
55
15
18
4
59
22
76
5
32
8
83
70
25
64
58
85
46
40
45
33

> <PUBCHEM_MMFF94_PARTIAL_CHARGES>
17
1 -0.68
11 -0.29
12 -0.09
13 -0.06
16 0.62
17 -0.2
18 -0.29
19 -0.3
2 -0.68
36 0.15
37 0.4
38 0.15
40 0.15
41 0.4
42 0.15
43 0.15
8 0.42

> <PUBCHEM_EFFECTIVE_ROTOR_COUNT>
8

> <PUBCHEM_PHARMACOPHORE_FEATURES>
8
1 1 acceptor
1 1 donor
1 10 hydrophobe
1 19 hydrophobe
1 2 acceptor
1 2 donor
3 3 4 6 hydrophobe
3 5 7 9 hydrophobe

> <PUBCHEM_HEAVY_ATOM_COUNT>
19

> <PUBCHEM_ATOM_DEF_STEREO_COUNT>
2

> <PUBCHEM_ATOM_UDEF_STEREO_COUNT>
0

> <PUBCHEM_BOND_DEF_STEREO_COUNT>
1

> <PUBCHEM_BOND_UDEF_STEREO_COUNT>
0

> <PUBCHEM_ISOTOPIC_ATOM_COUNT>
0

> <PUBCHEM_COMPONENT_COUNT>
1

> <PUBCHEM_CACTVS_TAUTO_COUNT>
1

> <PUBCHEM_CONFORMER_ID>
05B5A44300000001

> <PUBCHEM_MMFF94_ENERGY>
5.9363

> <PUBCHEM_FEATURE_SELFOVERLAP>
40.608

> <PUBCHEM_SHAPE_FINGERPRINT>
10299344 5 18333171673707316461
12539745 222 17988927725688091752
13673619 4 18260546727459476300
13685833 64 18411699898328505920
13885169 127 18408322155927661829
14026016 60 15502925313696855386
14123256 10 12612751319875551847
14251764 18 17988926703670230989
14251764 46 17918274246816523255
14344974 52 12901842635539262878
14729087 3 11024110945051183947
155225 1 9439403527482644886
15690457 1 18343580758946218694
1768 4 9151176489243118335
1818759 1 18334016086232919258
18643901 69 17894349964786330959
21130990 3 17895484747403772459
21150785 3 14562529578693047274
21267235 1 18411136927327548580
21403212 168 16773798082485287935
21591340 7 10663813070777794488
22224240 67 12823296797073043861
232437 2 18407761434450096970
246663 6 18334859411582474822
28498 318 18409165507062800149
33532 11 18408882928184854026
57828716 42 10015566313464503525
5937810 71 11747201443392441103
59682541 35 18060414725679856970
636775 72 10591773082217767947

> <PUBCHEM_SHAPE_MULTIPOLES>
379.27
34.45
1.83
0.73
14.1
0.01
-0.02
-23.23
2.66
0.63
0.17
-0.2
0.1
0.07

> <PUBCHEM_SHAPE_SELFOVERLAP>
715.671

> <PUBCHEM_SHAPE_VOLUME>
231.1

> <PUBCHEM_COORDINATE_TYPE>
2
5
10

$$$$
