171390257
  -OEChem-02172602293D

 48 52  0     1  0  0  0  0  0999 V2000
   -0.8742    0.5734    2.0701 O   0  0  0  0  0  0  0  0  0  0  0  0
   -3.5256   -0.9326    1.8393 O   0  0  0  0  0  0  0  0  0  0  0  0
   -5.1611   -1.7093    0.2472 O   0  0  0  0  0  0  0  0  0  0  0  0
    2.6832   -2.8273   -0.1292 O   0  0  0  0  0  0  0  0  0  0  0  0
    5.0359   -1.3592    0.0323 O   0  0  0  0  0  0  0  0  0  0  0  0
    0.0924    2.7398    0.3113 N   0  0  1  0  0  0  0  0  0  0  0  0
   -0.0126    1.3214   -0.1224 C   0  0  1  0  0  0  0  0  0  0  0  0
   -0.6739    1.0991   -1.5289 C   0  0  0  0  0  0  0  0  0  0  0  0
    1.3424    0.5954   -0.0654 C   0  0  0  0  0  0  0  0  0  0  0  0
   -0.9884    0.6491    0.8590 C   0  0  0  0  0  0  0  0  0  0  0  0
    1.1910    3.4271   -0.3759 C   0  0  0  0  0  0  0  0  0  0  0  0
   -1.9309    0.3355   -1.2355 C   0  0  0  0  0  0  0  0  0  0  0  0
   -2.1079    0.0835    0.1208 C   0  0  0  0  0  0  0  0  0  0  0  0
    2.5424    1.3290   -0.0078 C   0  0  0  0  0  0  0  0  0  0  0  0
    2.5241    2.8310    0.0670 C   0  0  0  0  0  0  0  0  0  0  0  0
   -1.1369    3.5292    0.2122 C   0  0  0  0  0  0  0  0  0  0  0  0
    1.4186   -0.8099   -0.1152 C   0  0  0  0  0  0  0  0  0  0  0  0
   -3.2041   -0.6037    0.5650 C   0  0  0  0  0  0  0  0  0  0  0  0
   -2.8738   -0.1114   -2.1630 C   0  0  0  0  0  0  0  0  0  0  0  0
    3.7751    0.6592    0.0348 C   0  0  0  0  0  0  0  0  0  0  0  0
   -4.1326   -1.0440   -0.3491 C   0  0  0  0  0  0  0  0  0  0  0  0
    2.6497   -1.4662   -0.0829 C   0  0  0  0  0  0  0  0  0  0  0  0
    3.8276   -0.7321   -0.0048 C   0  0  0  0  0  0  0  0  0  0  0  0
   -3.9981   -0.8156   -1.7123 C   0  0  0  0  0  0  0  0  0  0  0  0
   -4.7695   -1.6339    1.6341 C   0  0  0  0  0  0  0  0  0  0  0  0
    2.7555   -3.4302   -1.4198 C   0  0  0  0  0  0  0  0  0  0  0  0
    5.5518   -1.6973    1.3186 C   0  0  0  0  0  0  0  0  0  0  0  0
   -0.0326    0.5226   -2.2060 H   0  0  0  0  0  0  0  0  0  0  0  0
   -0.9202    2.0339   -2.0404 H   0  0  0  0  0  0  0  0  0  0  0  0
    1.2042    4.4946   -0.1218 H   0  0  0  0  0  0  0  0  0  0  0  0
    1.0799    3.3600   -1.4659 H   0  0  0  0  0  0  0  0  0  0  0  0
    2.7323    3.1241    1.1041 H   0  0  0  0  0  0  0  0  0  0  0  0
    3.3207    3.2455   -0.5625 H   0  0  0  0  0  0  0  0  0  0  0  0
   -1.9711    3.0572    0.7403 H   0  0  0  0  0  0  0  0  0  0  0  0
   -0.9930    4.5016    0.6982 H   0  0  0  0  0  0  0  0  0  0  0  0
   -1.4430    3.7225   -0.8204 H   0  0  0  0  0  0  0  0  0  0  0  0
    0.5122   -1.4069   -0.1832 H   0  0  0  0  0  0  0  0  0  0  0  0
   -2.7415    0.0820   -3.2230 H   0  0  0  0  0  0  0  0  0  0  0  0
    4.6990    1.2301    0.0982 H   0  0  0  0  0  0  0  0  0  0  0  0
   -4.7427   -1.1721   -2.4159 H   0  0  0  0  0  0  0  0  0  0  0  0
   -5.5590   -1.1195    2.1940 H   0  0  0  0  0  0  0  0  0  0  0  0
   -4.6667   -2.6526    2.0254 H   0  0  0  0  0  0  0  0  0  0  0  0
    2.7801   -4.5156   -1.2899 H   0  0  0  0  0  0  0  0  0  0  0  0
    1.8748   -3.1686   -2.0149 H   0  0  0  0  0  0  0  0  0  0  0  0
    3.6669   -3.1191   -1.9400 H   0  0  0  0  0  0  0  0  0  0  0  0
    6.5154   -2.1955    1.1810 H   0  0  0  0  0  0  0  0  0  0  0  0
    5.7065   -0.7951    1.9188 H   0  0  0  0  0  0  0  0  0  0  0  0
    4.8743   -2.3828    1.8375 H   0  0  0  0  0  0  0  0  0  0  0  0
  1 10  2  0  0  0  0
  2 18  1  0  0  0  0
  2 25  1  0  0  0  0
  3 21  1  0  0  0  0
  3 25  1  0  0  0  0
  4 22  1  0  0  0  0
  4 26  1  0  0  0  0
  5 23  1  0  0  0  0
  5 27  1  0  0  0  0
  6  7  1  0  0  0  0
  6 11  1  0  0  0  0
  6 16  1  0  0  0  0
  7  8  1  0  0  0  0
  7  9  1  0  0  0  0
  7 10  1  0  0  0  0
  8 12  1  0  0  0  0
  8 28  1  0  0  0  0
  8 29  1  0  0  0  0
  9 14  1  0  0  0  0
  9 17  2  0  0  0  0
 10 13  1  0  0  0  0
 11 15  1  0  0  0  0
 11 30  1  0  0  0  0
 11 31  1  0  0  0  0
 12 13  2  0  0  0  0
 12 19  1  0  0  0  0
 13 18  1  0  0  0  0
 14 15  1  0  0  0  0
 14 20  2  0  0  0  0
 15 32  1  0  0  0  0
 15 33  1  0  0  0  0
 16 34  1  0  0  0  0
 16 35  1  0  0  0  0
 16 36  1  0  0  0  0
 17 22  1  0  0  0  0
 17 37  1  0  0  0  0
 18 21  2  0  0  0  0
 19 24  2  0  0  0  0
 19 38  1  0  0  0  0
 20 23  1  0  0  0  0
 20 39  1  0  0  0  0
 21 24  1  0  0  0  0
 22 23  2  0  0  0  0
 24 40  1  0  0  0  0
 25 41  1  0  0  0  0
 25 42  1  0  0  0  0
 26 43  1  0  0  0  0
 26 44  1  0  0  0  0
 26 45  1  0  0  0  0
 27 46  1  0  0  0  0
 27 47  1  0  0  0  0
 27 48  1  0  0  0  0
M  END
> <PUBCHEM_COMPOUND_CID>
171390257

> <PUBCHEM_CONFORMER_RMSD>
0.8

> <PUBCHEM_CONFORMER_DIVERSEORDER>
1
3
2

> <PUBCHEM_MMFF94_PARTIAL_CHARGES>
31
1 -0.57
10 0.42
11 0.27
12 -0.14
13 0.09
14 -0.14
15 0.14
16 0.27
17 -0.15
18 0.08
19 -0.15
2 -0.36
20 -0.15
21 0.08
22 0.08
23 0.08
24 -0.15
25 0.56
26 0.28
27 0.28
3 -0.36
37 0.15
38 0.15
39 0.15
4 -0.36
40 0.15
5 -0.36
6 -0.81
7 0.47
8 0.14
9 -0.14

> <PUBCHEM_EFFECTIVE_ROTOR_COUNT>
3.4

> <PUBCHEM_PHARMACOPHORE_FEATURES>
11
1 1 acceptor
1 2 acceptor
1 3 acceptor
1 4 acceptor
1 5 acceptor
1 6 cation
5 2 3 18 21 25 rings
5 7 8 10 12 13 rings
6 12 13 18 19 21 24 rings
6 6 7 9 11 14 15 rings
6 9 14 17 20 22 23 rings

> <PUBCHEM_HEAVY_ATOM_COUNT>
27

> <PUBCHEM_ATOM_DEF_STEREO_COUNT>
1

> <PUBCHEM_ATOM_UDEF_STEREO_COUNT>
0

> <PUBCHEM_BOND_DEF_STEREO_COUNT>
0

> <PUBCHEM_BOND_UDEF_STEREO_COUNT>
0

> <PUBCHEM_ISOTOPIC_ATOM_COUNT>
0

> <PUBCHEM_COMPONENT_COUNT>
1

> <PUBCHEM_CACTVS_TAUTO_COUNT>
-1

> <PUBCHEM_CONFORMER_ID>
0A37353100000001

> <PUBCHEM_MMFF94_ENERGY>
106.0237

> <PUBCHEM_FEATURE_SELFOVERLAP>
56.08

> <PUBCHEM_SHAPE_FINGERPRINT>
1100329 8 17909268327937283872
11582403 64 16168550084416677549
11796584 16 17168129114593666002
12107183 9 18269851835079191537
12166972 35 17603591807550811798
12236239 1 17488193771073984049
12363563 72 18334018259364746514
12422481 6 17560253405131395167
12506688 2 18335987540208150383
12553582 1 18342179959937092670
12623949 98 17756172303147839307
12633257 1 18341902930130622975
12788726 201 17978492162250206753
13134695 92 18338797948085652389
13140716 1 18269268144396757986
13402501 40 18113903805016562411
13544592 145 17895190047968795507
13544653 18 18408887338730742487
13583140 156 14691999199088864650
13690498 29 17839201627382262774
13692114 37 17268935493678205329
13782708 43 17822572836904256219
13911987 19 17829626289516288772
14178342 30 18123466086550935400
14341114 328 16486684874851526306
14659021 117 17181639686085909234
14790565 3 17544200831835504580
14840074 17 18131349730682121014
14848160 33 18335417971821123090
15324884 4 17534323816009147653
15375462 189 17846500369833651699
15422964 175 18411426076640592982
15848702 151 18334860567102724985
15927050 60 17693098874538894012
17349148 13 18341890792774396050
17357779 13 18260266330598080380
17818456 19 17558854818178451473
17980427 23 13614231620986118585
1813 80 18202015316796762861
19862831 5 13551192207864659535
19930381 70 18409732867589133163
200 152 18409725149532596758
20511986 3 17632853157571043569
20645477 70 18262511632168464153
20775530 9 18057045705519100286
21033650 10 15791721967225339661
21133665 82 15604557252712143262
21304303 282 17103650291055561788
21344244 78 17989211481793018545
21421861 104 18057067828852781449
21796203 349 18267326351000904210
22182313 1 17677598934240900037
22907989 373 13985535559166298875
23559900 14 17240472633125747204
3380486 145 17898872393328800874
3383291 50 16681196908273251747
3421961 26 18338238266248499800
345986 75 18060147560748472993
3737641 26 17986965055047314766
404807 14 15003831550525234552
46194498 28 17532932916630373109
463206 1 18337110184662307531
5309563 4 18410573980993984686
57527295 17 17972002930938903799
613672 6 18338223874098258574
6669772 16 17969495103919069720
7970288 3 18410573972578773194
9709674 26 18052535465982351958

> <PUBCHEM_SHAPE_MULTIPOLES>
521.32
9.65
3.62
1.58
0.08
1.64
-0.04
-8.5
1.94
2.81
-0.31
-1.67
-0.58
0.6

> <PUBCHEM_SHAPE_SELFOVERLAP>
1169.63

> <PUBCHEM_SHAPE_VOLUME>
279.9

> <PUBCHEM_COORDINATE_TYPE>
2
5
10

$$$$
