10445414
  -OEChem-02172602553D

 37 39  0     1  0  0  0  0  0999 V2000
    1.1093   -1.2478    1.1645 O   0  0  0  0  0  0  0  0  0  0  0  0
   -1.8944   -1.2403   -0.9995 O   0  0  0  0  0  0  0  0  0  0  0  0
   -4.1449   -1.0386   -0.5950 O   0  0  0  0  0  0  0  0  0  0  0  0
    0.7686    3.7413   -0.4262 O   0  0  0  0  0  0  0  0  0  0  0  0
    1.4569   -2.1891    0.1498 C   0  0  1  0  0  0  0  0  0  0  0  0
    0.0159   -1.7243    0.3681 C   0  0  2  0  0  0  0  0  0  0  0  0
   -0.6666   -0.6817   -0.4760 C   0  0  2  0  0  0  0  0  0  0  0  0
    2.3681   -1.6892   -0.9397 C   0  0  0  0  0  0  0  0  0  0  0  0
   -1.0532    0.5932    0.2913 C   0  0  1  0  0  0  0  0  0  0  0  0
    1.8159   -3.5233    0.7146 C   0  0  0  0  0  0  0  0  0  0  0  0
    3.0863   -0.3552   -0.6722 C   0  0  0  0  0  0  0  0  0  0  0  0
   -0.7726    1.8862   -0.5077 C   0  0  0  0  0  0  0  0  0  0  0  0
   -2.5151    0.3685    0.4864 C   0  0  0  0  0  0  0  0  0  0  0  0
   -2.9911   -0.6985   -0.4063 C   0  0  0  0  0  0  0  0  0  0  0  0
    2.1521    0.8076   -0.8408 C   0  0  0  0  0  0  0  0  0  0  0  0
    0.5999    2.5303   -0.2836 C   0  0  0  0  0  0  0  0  0  0  0  0
    1.7523    1.6715    0.1049 C   0  0  0  0  0  0  0  0  0  0  0  0
   -3.3274    0.9704    1.3592 C   0  0  0  0  0  0  0  0  0  0  0  0
    2.2399    1.8191    1.5082 C   0  0  0  0  0  0  0  0  0  0  0  0
   -0.6835   -2.3865    0.8643 H   0  0  0  0  0  0  0  0  0  0  0  0
   -0.0680   -0.4570   -1.3585 H   0  0  0  0  0  0  0  0  0  0  0  0
    1.8137   -1.6443   -1.8854 H   0  0  0  0  0  0  0  0  0  0  0  0
    3.1523   -2.4391   -1.1103 H   0  0  0  0  0  0  0  0  0  0  0  0
   -0.5597    0.6481    1.2674 H   0  0  0  0  0  0  0  0  0  0  0  0
    1.1599   -3.8158    1.5420 H   0  0  0  0  0  0  0  0  0  0  0  0
    1.7405   -4.2958   -0.0578 H   0  0  0  0  0  0  0  0  0  0  0  0
    2.8428   -3.5175    1.0956 H   0  0  0  0  0  0  0  0  0  0  0  0
    3.8944   -0.2374   -1.4044 H   0  0  0  0  0  0  0  0  0  0  0  0
    3.5590   -0.3787    0.3137 H   0  0  0  0  0  0  0  0  0  0  0  0
   -1.4996    2.6542   -0.2107 H   0  0  0  0  0  0  0  0  0  0  0  0
   -0.8973    1.7258   -1.5853 H   0  0  0  0  0  0  0  0  0  0  0  0
    1.7046    0.8772   -1.8324 H   0  0  0  0  0  0  0  0  0  0  0  0
   -2.9501    1.7399    2.0247 H   0  0  0  0  0  0  0  0  0  0  0  0
   -4.3789    0.7155    1.4347 H   0  0  0  0  0  0  0  0  0  0  0  0
    2.6308    2.8300    1.6648 H   0  0  0  0  0  0  0  0  0  0  0  0
    3.0408    1.1193    1.7573 H   0  0  0  0  0  0  0  0  0  0  0  0
    1.4249    1.6563    2.2203 H   0  0  0  0  0  0  0  0  0  0  0  0
  1  5  1  0  0  0  0
  1  6  1  0  0  0  0
  2  7  1  0  0  0  0
  2 14  1  0  0  0  0
  3 14  2  0  0  0  0
  4 16  2  0  0  0  0
  5  6  1  0  0  0  0
  5  8  1  0  0  0  0
  5 10  1  0  0  0  0
  6  7  1  0  0  0  0
  6 20  1  0  0  0  0
  7  9  1  0  0  0  0
  7 21  1  0  0  0  0
  8 11  1  0  0  0  0
  8 22  1  0  0  0  0
  8 23  1  0  0  0  0
  9 12  1  0  0  0  0
  9 13  1  0  0  0  0
  9 24  1  0  0  0  0
 10 25  1  0  0  0  0
 10 26  1  0  0  0  0
 10 27  1  0  0  0  0
 11 15  1  0  0  0  0
 11 28  1  0  0  0  0
 11 29  1  0  0  0  0
 12 16  1  0  0  0  0
 12 30  1  0  0  0  0
 12 31  1  0  0  0  0
 13 14  1  0  0  0  0
 13 18  2  0  0  0  0
 15 17  2  0  0  0  0
 15 32  1  0  0  0  0
 16 17  1  0  0  0  0
 17 19  1  0  0  0  0
 18 33  1  0  0  0  0
 18 34  1  0  0  0  0
 19 35  1  0  0  0  0
 19 36  1  0  0  0  0
 19 37  1  0  0  0  0
M  END
> <PUBCHEM_COMPOUND_CID>
10445414

> <PUBCHEM_CONFORMER_RMSD>
0.6

> <PUBCHEM_CONFORMER_DIVERSEORDER>
1
7
3
5
8
2
6
4

> <PUBCHEM_MMFF94_PARTIAL_CHARGES>
23
1 -0.3
10 0.09
11 0.14
12 0.06
13 -0.12
14 0.71
15 -0.29
16 0.49
17 -0.12
18 -0.3
19 0.14
2 -0.43
20 0.1
3 -0.57
32 0.15
33 0.15
34 0.15
4 -0.57
5 -0.04
6 -0.05
7 0.38
8 0.09
9 0.14

> <PUBCHEM_EFFECTIVE_ROTOR_COUNT>
1

> <PUBCHEM_PHARMACOPHORE_FEATURES>
4
1 1 acceptor
1 3 acceptor
1 4 acceptor
5 2 7 9 13 14 rings

> <PUBCHEM_HEAVY_ATOM_COUNT>
19

> <PUBCHEM_ATOM_DEF_STEREO_COUNT>
4

> <PUBCHEM_ATOM_UDEF_STEREO_COUNT>
0

> <PUBCHEM_BOND_DEF_STEREO_COUNT>
1

> <PUBCHEM_BOND_UDEF_STEREO_COUNT>
0

> <PUBCHEM_ISOTOPIC_ATOM_COUNT>
0

> <PUBCHEM_COMPONENT_COUNT>
1

> <PUBCHEM_CACTVS_TAUTO_COUNT>
5

> <PUBCHEM_CONFORMER_ID>
009F626600000001

> <PUBCHEM_MMFF94_ENERGY>
49.9934

> <PUBCHEM_FEATURE_SELFOVERLAP>
20.297

> <PUBCHEM_SHAPE_FINGERPRINT>
104564 63 17906468627292113692
10967382 1 18410013277202684958
11086676 242 18121513348982558712
11578080 2 17842809188861360657
12553582 1 18193562172782222611
13140716 1 18194124237781990049
14178342 30 18270112547424571473
14251711 518 18120376453938605438
14251745 187 18340775956771586980
15375462 189 18265908963968341251
15490181 8 17979077415804947336
15536298 74 18131353045958919341
16945 1 18336269045428941201
19868273 325 18051124796526741943
20691752 17 18260552229227666449
20905425 154 18268429019324036982
21041028 32 17902242112973822426
22112679 90 18270678641220304135
2255824 54 18338524147856290364
2334 1 17761214714299439069
23419403 2 15805727430744734214
23557571 272 17623560952924648598
23598291 2 18201167559346516135
257057 1 18121486960719582386
2748010 2 18265041449320627149
3060560 45 18264197187583064495
34934 24 18266463113570728765
352729 6 17618785103334572284
474 4 18266177416920688913
7364860 26 18202560704676461034
7832392 63 18270408187293036369
81228 2 17397250647267808051

> <PUBCHEM_SHAPE_MULTIPOLES>
367.53
4.99
3.68
1.15
3.6
1
-0.26
-1.79
0.03
-2.24
-0.24
-0.1
0.07
-0.46

> <PUBCHEM_SHAPE_SELFOVERLAP>
776.234

> <PUBCHEM_SHAPE_VOLUME>
206

> <PUBCHEM_COORDINATE_TYPE>
2
5
10

$$$$
