5318714
  -OEChem-02172602433D

 83 86  0     1  0  0  0  0  0999 V2000
    1.8677   -2.2040   -0.0698 O   0  0  0  0  0  0  0  0  0  0  0  0
   -1.7513   -1.5670    1.8341 O   0  0  0  0  0  0  0  0  0  0  0  0
    4.2315   -2.0939    0.1082 O   0  0  0  0  0  0  0  0  0  0  0  0
    0.6527   -0.1170    1.3076 O   0  0  0  0  0  0  0  0  0  0  0  0
   -2.9130   -2.4602    0.0170 O   0  0  0  0  0  0  0  0  0  0  0  0
   -0.5005   -3.6293   -0.9218 O   0  0  0  0  0  0  0  0  0  0  0  0
    4.1895   -4.9436    0.4799 O   0  0  0  0  0  0  0  0  0  0  0  0
    3.6934   -5.4960   -2.2022 O   0  0  0  0  0  0  0  0  0  0  0  0
    4.7984   -3.1427   -3.3800 O   0  0  0  0  0  0  0  0  0  0  0  0
   -1.7068   -1.0445    4.7412 O   0  0  0  0  0  0  0  0  0  0  0  0
    2.5985    0.4309    2.4260 O   0  0  0  0  0  0  0  0  0  0  0  0
   -4.7022    1.1290   -3.0788 O   0  0  0  0  0  0  0  0  0  0  0  0
   -6.4253    2.5802   -1.4504 O   0  0  0  0  0  0  0  0  0  0  0  0
    4.4875    7.1365   -0.2339 O   0  0  0  0  0  0  0  0  0  0  0  0
    2.0751    8.0430   -1.2733 O   0  0  0  0  0  0  0  0  0  0  0  0
    0.7563   -2.4742    0.7800 C   0  0  1  0  0  0  0  0  0  0  0  0
    0.6722   -1.4231    1.8872 C   0  0  2  0  0  0  0  0  0  0  0  0
   -0.5228   -2.4943   -0.0564 C   0  0  2  0  0  0  0  0  0  0  0  0
   -0.6110   -1.6278    2.6999 C   0  0  1  0  0  0  0  0  0  0  0  0
    3.0487   -2.8472    0.3968 C   0  0  2  0  0  0  0  0  0  0  0  0
    3.1437   -4.2493   -0.2019 C   0  0  1  0  0  0  0  0  0  0  0  0
   -1.7569   -2.5939    0.8432 C   0  0  1  0  0  0  0  0  0  0  0  0
    3.4505   -4.1843   -1.6990 C   0  0  1  0  0  0  0  0  0  0  0  0
    4.6733   -3.3068   -1.9695 C   0  0  2  0  0  0  0  0  0  0  0  0
    4.5039   -1.9415   -1.2885 C   0  0  2  0  0  0  0  0  0  0  0  0
   -0.7956   -0.5595    3.7713 C   0  0  0  0  0  0  0  0  0  0  0  0
    5.7606   -1.0837   -1.4066 C   0  0  0  0  0  0  0  0  0  0  0  0
   -4.0668   -2.9823    0.6568 C   0  0  0  0  0  0  0  0  0  0  0  0
    1.6797    0.7006    1.6689 C   0  0  0  0  0  0  0  0  0  0  0  0
   -5.2761   -2.8340   -0.2599 C   0  0  0  0  0  0  0  0  0  0  0  0
    1.4887    1.9955    0.9769 C   0  0  0  0  0  0  0  0  0  0  0  0
   -5.5801   -1.3906   -0.5802 C   0  0  0  0  0  0  0  0  0  0  0  0
    2.3743    2.9836    1.1678 C   0  0  0  0  0  0  0  0  0  0  0  0
   -4.9966   -0.7850   -1.6931 C   0  0  0  0  0  0  0  0  0  0  0  0
   -6.4447   -0.6624    0.2369 C   0  0  0  0  0  0  0  0  0  0  0  0
   -5.2780    0.5488   -1.9890 C   0  0  0  0  0  0  0  0  0  0  0  0
   -6.7258    0.6715   -0.0589 C   0  0  0  0  0  0  0  0  0  0  0  0
    2.2992    4.3096    0.5296 C   0  0  0  0  0  0  0  0  0  0  0  0
   -6.1425    1.2771   -1.1720 C   0  0  0  0  0  0  0  0  0  0  0  0
    3.4392    5.1089    0.4457 C   0  0  0  0  0  0  0  0  0  0  0  0
    1.0880    4.7653    0.0091 C   0  0  0  0  0  0  0  0  0  0  0  0
    3.3681    6.3640   -0.1588 C   0  0  0  0  0  0  0  0  0  0  0  0
    1.0169    6.0206   -0.5952 C   0  0  0  0  0  0  0  0  0  0  0  0
    2.1570    6.8198   -0.6794 C   0  0  0  0  0  0  0  0  0  0  0  0
   -7.3186    3.2531   -0.5653 C   0  0  0  0  0  0  0  0  0  0  0  0
    0.8654   -3.4685    1.2364 H   0  0  0  0  0  0  0  0  0  0  0  0
    1.5282   -1.5529    2.5592 H   0  0  0  0  0  0  0  0  0  0  0  0
   -0.5778   -1.6079   -0.6992 H   0  0  0  0  0  0  0  0  0  0  0  0
   -0.5993   -2.6177    3.1757 H   0  0  0  0  0  0  0  0  0  0  0  0
    3.0387   -2.9154    1.4912 H   0  0  0  0  0  0  0  0  0  0  0  0
    2.2247   -4.8260   -0.0510 H   0  0  0  0  0  0  0  0  0  0  0  0
   -1.7762   -3.5771    1.3339 H   0  0  0  0  0  0  0  0  0  0  0  0
    2.5841   -3.7901   -2.2448 H   0  0  0  0  0  0  0  0  0  0  0  0
    5.5799   -3.8120   -1.6163 H   0  0  0  0  0  0  0  0  0  0  0  0
    3.6813   -1.3828   -1.7535 H   0  0  0  0  0  0  0  0  0  0  0  0
   -1.1998    0.3685    3.3540 H   0  0  0  0  0  0  0  0  0  0  0  0
    0.1484   -0.3502    4.2841 H   0  0  0  0  0  0  0  0  0  0  0  0
    5.6170   -0.1256   -0.8950 H   0  0  0  0  0  0  0  0  0  0  0  0
    6.0149   -0.8845   -2.4518 H   0  0  0  0  0  0  0  0  0  0  0  0
    6.6140   -1.5728   -0.9240 H   0  0  0  0  0  0  0  0  0  0  0  0
   -0.4482   -4.4289   -0.3711 H   0  0  0  0  0  0  0  0  0  0  0  0
    3.9332   -5.0149    1.4152 H   0  0  0  0  0  0  0  0  0  0  0  0
    2.9050   -6.0325   -2.0123 H   0  0  0  0  0  0  0  0  0  0  0  0
    4.0120   -2.6680   -3.6991 H   0  0  0  0  0  0  0  0  0  0  0  0
   -4.2397   -2.4536    1.6019 H   0  0  0  0  0  0  0  0  0  0  0  0
   -3.9179   -4.0466    0.8738 H   0  0  0  0  0  0  0  0  0  0  0  0
   -1.8059   -0.3502    5.4147 H   0  0  0  0  0  0  0  0  0  0  0  0
   -6.1535   -3.3024    0.2026 H   0  0  0  0  0  0  0  0  0  0  0  0
   -5.0970   -3.3735   -1.1989 H   0  0  0  0  0  0  0  0  0  0  0  0
    0.6331    2.0802    0.3170 H   0  0  0  0  0  0  0  0  0  0  0  0
    3.2295    2.8323    1.8225 H   0  0  0  0  0  0  0  0  0  0  0  0
   -4.3228   -1.3532   -2.3301 H   0  0  0  0  0  0  0  0  0  0  0  0
   -6.9031   -1.1239    1.1076 H   0  0  0  0  0  0  0  0  0  0  0  0
   -7.4054    1.1749    0.6200 H   0  0  0  0  0  0  0  0  0  0  0  0
    4.3861    4.7565    0.8494 H   0  0  0  0  0  0  0  0  0  0  0  0
    0.1710    4.1867    0.0696 H   0  0  0  0  0  0  0  0  0  0  0  0
   -4.1351    0.4758   -3.5235 H   0  0  0  0  0  0  0  0  0  0  0  0
    0.0661    6.3657   -0.9930 H   0  0  0  0  0  0  0  0  0  0  0  0
   -6.9057    3.3255    0.4467 H   0  0  0  0  0  0  0  0  0  0  0  0
   -8.3161    2.8006   -0.5775 H   0  0  0  0  0  0  0  0  0  0  0  0
   -7.4299    4.2771   -0.9369 H   0  0  0  0  0  0  0  0  0  0  0  0
    5.2296    6.6607    0.1771 H   0  0  0  0  0  0  0  0  0  0  0  0
    1.1616    8.1888   -1.5736 H   0  0  0  0  0  0  0  0  0  0  0  0
  1 16  1  0  0  0  0
  1 20  1  0  0  0  0
  2 19  1  0  0  0  0
  2 22  1  0  0  0  0
  3 20  1  0  0  0  0
  3 25  1  0  0  0  0
  4 17  1  0  0  0  0
  4 29  1  0  0  0  0
  5 22  1  0  0  0  0
  5 28  1  0  0  0  0
  6 18  1  0  0  0  0
  6 61  1  0  0  0  0
  7 21  1  0  0  0  0
  7 62  1  0  0  0  0
  8 23  1  0  0  0  0
  8 63  1  0  0  0  0
  9 24  1  0  0  0  0
  9 64  1  0  0  0  0
 10 26  1  0  0  0  0
 10 67  1  0  0  0  0
 11 29  2  0  0  0  0
 12 36  1  0  0  0  0
 12 77  1  0  0  0  0
 13 39  1  0  0  0  0
 13 45  1  0  0  0  0
 14 42  1  0  0  0  0
 14 82  1  0  0  0  0
 15 44  1  0  0  0  0
 15 83  1  0  0  0  0
 16 17  1  0  0  0  0
 16 18  1  0  0  0  0
 16 46  1  0  0  0  0
 17 19  1  0  0  0  0
 17 47  1  0  0  0  0
 18 22  1  0  0  0  0
 18 48  1  0  0  0  0
 19 26  1  0  0  0  0
 19 49  1  0  0  0  0
 20 21  1  0  0  0  0
 20 50  1  0  0  0  0
 21 23  1  0  0  0  0
 21 51  1  0  0  0  0
 22 52  1  0  0  0  0
 23 24  1  0  0  0  0
 23 53  1  0  0  0  0
 24 25  1  0  0  0  0
 24 54  1  0  0  0  0
 25 27  1  0  0  0  0
 25 55  1  0  0  0  0
 26 56  1  0  0  0  0
 26 57  1  0  0  0  0
 27 58  1  0  0  0  0
 27 59  1  0  0  0  0
 27 60  1  0  0  0  0
 28 30  1  0  0  0  0
 28 65  1  0  0  0  0
 28 66  1  0  0  0  0
 29 31  1  0  0  0  0
 30 32  1  0  0  0  0
 30 68  1  0  0  0  0
 30 69  1  0  0  0  0
 31 33  2  0  0  0  0
 31 70  1  0  0  0  0
 32 34  2  0  0  0  0
 32 35  1  0  0  0  0
 33 38  1  0  0  0  0
 33 71  1  0  0  0  0
 34 36  1  0  0  0  0
 34 72  1  0  0  0  0
 35 37  2  0  0  0  0
 35 73  1  0  0  0  0
 36 39  2  0  0  0  0
 37 39  1  0  0  0  0
 37 74  1  0  0  0  0
 38 40  2  0  0  0  0
 38 41  1  0  0  0  0
 40 42  1  0  0  0  0
 40 75  1  0  0  0  0
 41 43  2  0  0  0  0
 41 76  1  0  0  0  0
 42 44  2  0  0  0  0
 43 44  1  0  0  0  0
 43 78  1  0  0  0  0
 45 79  1  0  0  0  0
 45 80  1  0  0  0  0
 45 81  1  0  0  0  0
M  END
> <PUBCHEM_COMPOUND_CID>
5318714

> <PUBCHEM_CONFORMER_RMSD>
1.4

> <PUBCHEM_CONFORMER_DIVERSEORDER>
1
27
30
13
16
25
19
12
32
14
10
31
11
15
8
7
23
24
35
33
18
20
17
28
6
34
36
21
26
9
2
29
22
4
3
5

> <PUBCHEM_MMFF94_PARTIAL_CHARGES>
60
1 -0.56
10 -0.68
11 -0.57
12 -0.53
13 -0.36
14 -0.53
15 -0.53
16 0.28
17 0.28
18 0.28
19 0.28
2 -0.56
20 0.56
21 0.28
22 0.56
23 0.28
24 0.28
25 0.28
26 0.28
28 0.28
29 0.71
3 -0.56
30 0.14
31 -0.14
32 -0.14
33 -0.18
34 -0.15
35 -0.15
36 0.08
37 -0.15
38 0.03
39 0.08
4 -0.43
40 -0.15
41 -0.15
42 0.08
43 -0.15
44 0.08
45 0.28
5 -0.56
6 -0.68
61 0.4
62 0.4
63 0.4
64 0.4
67 0.4
7 -0.68
70 0.15
71 0.15
72 0.15
73 0.15
74 0.15
75 0.15
76 0.15
77 0.45
78 0.15
8 -0.68
82 0.45
83 0.45
9 -0.68

> <PUBCHEM_EFFECTIVE_ROTOR_COUNT>
14.4

> <PUBCHEM_PHARMACOPHORE_FEATURES>
23
1 1 acceptor
1 10 acceptor
1 10 donor
1 11 acceptor
1 12 donor
1 13 acceptor
1 14 donor
1 15 donor
1 2 acceptor
1 3 acceptor
1 5 acceptor
1 6 acceptor
1 6 donor
1 7 acceptor
1 7 donor
1 8 acceptor
1 8 donor
1 9 acceptor
1 9 donor
6 2 16 17 18 19 22 rings
6 3 20 21 23 24 25 rings
6 32 34 35 36 37 39 rings
6 38 40 41 42 43 44 rings

> <PUBCHEM_HEAVY_ATOM_COUNT>
45

> <PUBCHEM_ATOM_DEF_STEREO_COUNT>
10

> <PUBCHEM_ATOM_UDEF_STEREO_COUNT>
0

> <PUBCHEM_BOND_DEF_STEREO_COUNT>
1

> <PUBCHEM_BOND_UDEF_STEREO_COUNT>
0

> <PUBCHEM_ISOTOPIC_ATOM_COUNT>
0

> <PUBCHEM_COMPONENT_COUNT>
1

> <PUBCHEM_CACTVS_TAUTO_COUNT>
83

> <PUBCHEM_CONFORMER_ID>
0051283A00000001

> <PUBCHEM_MMFF94_ENERGY>
137.1858

> <PUBCHEM_FEATURE_SELFOVERLAP>
116.853

> <PUBCHEM_SHAPE_FINGERPRINT>
10462674 296 18124027932762091617
10556698 54 18117535393787348677
10985338 8 17977929508755109192
13757389 114 16969424604127240510
15064981 113 17623024795072509668
15198563 99 17981898436572674334
18365409 1 16034332197339375923
19309040 13 18199750418272035885
20771845 165 17687474876345856468
21987440 362 18046059638827123804
23576562 1 18342730828501568911
24771750 20 17982740967253767462
3103668 31 17547850755056220413
4066623 53 18195800770140239872
44802255 64 17329436554386647496
46939830 39 18200597969474031513
5081480 168 18272080561854250223
508180 173 18261685778656022595
5223283 242 18268429040936406699

> <PUBCHEM_SHAPE_MULTIPOLES>
838.04
15.24
12.31
3.01
26.78
23.32
-2.11
4.21
10.07
-24.11
6
0.22
-2.28
4.95

> <PUBCHEM_SHAPE_SELFOVERLAP>
1772.568

> <PUBCHEM_SHAPE_VOLUME>
463.2

> <PUBCHEM_COORDINATE_TYPE>
2
5
10

$$$$
