44256626
  -OEChem-02172602353D

 72 76  0     1  0  0  0  0  0999 V2000
    0.1501    1.7535   -0.4083 O   0  0  0  0  0  0  0  0  0  0  0  0
    2.5874    0.7903   -1.3763 O   0  0  0  0  0  0  0  0  0  0  0  0
    2.0704   -1.4804   -1.5362 O   0  0  0  0  0  0  0  0  0  0  0  0
    2.2831    4.2492   -2.0574 O   0  0  0  0  0  0  0  0  0  0  0  0
    1.8437    5.4070    0.5529 O   0  0  0  0  0  0  0  0  0  0  0  0
   -1.3886    1.9261    1.3557 O   0  0  0  0  0  0  0  0  0  0  0  0
    1.0747    3.0912    1.9040 O   0  0  0  0  0  0  0  0  0  0  0  0
    5.3422    0.1603   -1.6643 O   0  0  0  0  0  0  0  0  0  0  0  0
    6.0046   -2.5078   -0.7654 O   0  0  0  0  0  0  0  0  0  0  0  0
    3.4981   -3.3024    0.1374 O   0  0  0  0  0  0  0  0  0  0  0  0
   -2.7703   -1.4712    0.8700 O   0  3  0  0  0  0  0  0  0  0  0  0
   -5.3139    1.5792   -1.9279 O   0  0  0  0  0  0  0  0  0  0  0  0
   -6.4320   -3.0427   -1.7919 O   0  0  0  0  0  0  0  0  0  0  0  0
    2.2052   -1.6131    4.8235 O   0  0  0  0  0  0  0  0  0  0  0  0
    0.8256    2.4136   -1.4840 C   0  0  1  0  0  0  0  0  0  0  0  0
    1.7368    3.5299   -0.9549 C   0  0  2  0  0  0  0  0  0  0  0  0
    0.9442    4.4905   -0.0646 C   0  0  1  0  0  0  0  0  0  0  0  0
    0.1620    3.7239    1.0016 C   0  0  1  0  0  0  0  0  0  0  0  0
    4.3801   -0.7816   -1.1899 C   0  0  1  0  0  0  0  0  0  0  0  0
    3.0350   -0.4780   -1.8538 C   0  0  2  0  0  0  0  0  0  0  0  0
    4.8473   -2.1952   -1.5357 C   0  0  2  0  0  0  0  0  0  0  0  0
    3.7440   -3.2193   -1.2678 C   0  0  2  0  0  0  0  0  0  0  0  0
   -0.6865    2.6378    0.3410 C   0  0  1  0  0  0  0  0  0  0  0  0
    1.6187    1.3562   -2.2453 C   0  0  0  0  0  0  0  0  0  0  0  0
    2.4545   -2.7893   -1.9757 C   0  0  1  0  0  0  0  0  0  0  0  0
    1.2904   -3.7281   -1.6814 C   0  0  0  0  0  0  0  0  0  0  0  0
   -2.1823    0.9352    0.8253 C   0  0  0  0  0  0  0  0  0  0  0  0
   -2.0031   -0.4888    1.2525 C   0  0  0  0  0  0  0  0  0  0  0  0
   -3.1725    1.1808   -0.0422 C   0  0  0  0  0  0  0  0  0  0  0  0
   -4.0271    0.1014   -0.5233 C   0  0  0  0  0  0  0  0  0  0  0  0
   -3.8065   -1.1931   -0.0413 C   0  0  0  0  0  0  0  0  0  0  0  0
   -0.8970   -0.7858    2.1925 C   0  0  0  0  0  0  0  0  0  0  0  0
   -5.0617    0.3332   -1.4344 C   0  0  0  0  0  0  0  0  0  0  0  0
   -4.6141   -2.2485   -0.4666 C   0  0  0  0  0  0  0  0  0  0  0  0
   -0.8673   -0.1795    3.4484 C   0  0  0  0  0  0  0  0  0  0  0  0
    0.1157   -1.6700    1.8208 C   0  0  0  0  0  0  0  0  0  0  0  0
   -5.8676   -0.7247   -1.8593 C   0  0  0  0  0  0  0  0  0  0  0  0
   -5.6442   -2.0137   -1.3757 C   0  0  0  0  0  0  0  0  0  0  0  0
    0.1751   -0.4572    4.3325 C   0  0  0  0  0  0  0  0  0  0  0  0
    1.1583   -1.9478    2.7049 C   0  0  0  0  0  0  0  0  0  0  0  0
    1.1879   -1.3414    3.9607 C   0  0  0  0  0  0  0  0  0  0  0  0
    0.0763    2.8256   -2.1730 H   0  0  0  0  0  0  0  0  0  0  0  0
    2.5827    3.1262   -0.3873 H   0  0  0  0  0  0  0  0  0  0  0  0
    0.2574    5.0836   -0.6811 H   0  0  0  0  0  0  0  0  0  0  0  0
   -0.4508    4.4006    1.6060 H   0  0  0  0  0  0  0  0  0  0  0  0
    4.3182   -0.6498   -0.1033 H   0  0  0  0  0  0  0  0  0  0  0  0
    3.1638   -0.4224   -2.9443 H   0  0  0  0  0  0  0  0  0  0  0  0
    5.1461   -2.2364   -2.5907 H   0  0  0  0  0  0  0  0  0  0  0  0
    4.0704   -4.2117   -1.5996 H   0  0  0  0  0  0  0  0  0  0  0  0
   -1.3984    3.1290   -0.3356 H   0  0  0  0  0  0  0  0  0  0  0  0
    2.1226    1.7865   -3.1176 H   0  0  0  0  0  0  0  0  0  0  0  0
    0.9230    0.5804   -2.5890 H   0  0  0  0  0  0  0  0  0  0  0  0
    2.6124   -2.7618   -3.0615 H   0  0  0  0  0  0  0  0  0  0  0  0
    1.0141   -3.7212   -0.6232 H   0  0  0  0  0  0  0  0  0  0  0  0
    1.5258   -4.7548   -1.9776 H   0  0  0  0  0  0  0  0  0  0  0  0
    0.3998   -3.4048   -2.2318 H   0  0  0  0  0  0  0  0  0  0  0  0
    1.5451    4.6213   -2.5696 H   0  0  0  0  0  0  0  0  0  0  0  0
    1.3171    5.9962    1.1196 H   0  0  0  0  0  0  0  0  0  0  0  0
    1.4895    2.3416    1.4449 H   0  0  0  0  0  0  0  0  0  0  0  0
    5.4122    0.0609   -2.6291 H   0  0  0  0  0  0  0  0  0  0  0  0
    6.2738   -3.4131   -0.9965 H   0  0  0  0  0  0  0  0  0  0  0  0
    2.9903   -4.1147    0.3020 H   0  0  0  0  0  0  0  0  0  0  0  0
   -3.3919    2.1905   -0.3710 H   0  0  0  0  0  0  0  0  0  0  0  0
   -4.4335   -3.2505   -0.0873 H   0  0  0  0  0  0  0  0  0  0  0  0
   -1.6542    0.5031    3.7588 H   0  0  0  0  0  0  0  0  0  0  0  0
    0.0993   -2.1434    0.8442 H   0  0  0  0  0  0  0  0  0  0  0  0
   -6.6726   -0.5455   -2.5683 H   0  0  0  0  0  0  0  0  0  0  0  0
    0.1855    0.0198    5.3088 H   0  0  0  0  0  0  0  0  0  0  0  0
    1.9434   -2.6383    2.4115 H   0  0  0  0  0  0  0  0  0  0  0  0
   -6.0668    1.5351   -2.5418 H   0  0  0  0  0  0  0  0  0  0  0  0
   -7.0924   -2.7013   -2.4191 H   0  0  0  0  0  0  0  0  0  0  0  0
    2.0664   -1.1080    5.6431 H   0  0  0  0  0  0  0  0  0  0  0  0
  1 15  1  0  0  0  0
  1 23  1  0  0  0  0
  2 20  1  0  0  0  0
  2 24  1  0  0  0  0
  3 20  1  0  0  0  0
  3 25  1  0  0  0  0
  4 16  1  0  0  0  0
  4 57  1  0  0  0  0
  5 17  1  0  0  0  0
  5 58  1  0  0  0  0
  6 23  1  0  0  0  0
  6 27  1  0  0  0  0
  7 18  1  0  0  0  0
  7 59  1  0  0  0  0
  8 19  1  0  0  0  0
  8 60  1  0  0  0  0
  9 21  1  0  0  0  0
  9 61  1  0  0  0  0
 10 22  1  0  0  0  0
 10 62  1  0  0  0  0
 11 28  2  0  0  0  0
 11 31  1  0  0  0  0
 12 33  1  0  0  0  0
 12 70  1  0  0  0  0
 13 38  1  0  0  0  0
 13 71  1  0  0  0  0
 14 41  1  0  0  0  0
 14 72  1  0  0  0  0
 15 16  1  0  0  0  0
 15 24  1  0  0  0  0
 15 42  1  0  0  0  0
 16 17  1  0  0  0  0
 16 43  1  0  0  0  0
 17 18  1  0  0  0  0
 17 44  1  0  0  0  0
 18 23  1  0  0  0  0
 18 45  1  0  0  0  0
 19 20  1  0  0  0  0
 19 21  1  0  0  0  0
 19 46  1  0  0  0  0
 20 47  1  0  0  0  0
 21 22  1  0  0  0  0
 21 48  1  0  0  0  0
 22 25  1  0  0  0  0
 22 49  1  0  0  0  0
 23 50  1  0  0  0  0
 24 51  1  0  0  0  0
 24 52  1  0  0  0  0
 25 26  1  0  0  0  0
 25 53  1  0  0  0  0
 26 54  1  0  0  0  0
 26 55  1  0  0  0  0
 26 56  1  0  0  0  0
 27 28  1  0  0  0  0
 27 29  2  0  0  0  0
 28 32  1  0  0  0  0
 29 30  1  0  0  0  0
 29 63  1  0  0  0  0
 30 31  1  0  0  0  0
 30 33  2  0  0  0  0
 31 34  2  0  0  0  0
 32 35  2  0  0  0  0
 32 36  1  0  0  0  0
 33 37  1  0  0  0  0
 34 38  1  0  0  0  0
 34 64  1  0  0  0  0
 35 39  1  0  0  0  0
 35 65  1  0  0  0  0
 36 40  2  0  0  0  0
 36 66  1  0  0  0  0
 37 38  2  0  0  0  0
 37 67  1  0  0  0  0
 39 41  2  0  0  0  0
 39 68  1  0  0  0  0
 40 41  1  0  0  0  0
 40 69  1  0  0  0  0
M  CHG  1  11   1
M  END
> <PUBCHEM_COMPOUND_CID>
44256626

> <PUBCHEM_CONFORMER_RMSD>
1.6

> <PUBCHEM_CONFORMER_DIVERSEORDER>
1
20
84
19
24
36
6
56
17
87
92
93
54
86
47
81
33
27
34
2
32
100
9
26
5
75
60
29
85
89
3
8
16
63
90
59
25
66
96
31
79
23
82
78
83
57
58
13
38
98
68
94
30
49
41
44
76
97
43
21
95
45
39
73
61
35
72
71
42
48
22
10
77
80
18
4
69
62
7
37
46
50
99
11
15
88
53
14
55
28
64
70
12
51
74
91
40
67
52
65

> <PUBCHEM_MMFF94_PARTIAL_CHARGES>
56
1 -0.56
10 -0.68
11 -0.87
12 -0.53
13 -0.53
14 -0.53
15 0.28
16 0.28
17 0.28
18 0.28
19 0.28
2 -0.56
20 0.56
21 0.28
22 0.28
23 0.56
24 0.28
25 0.28
27 0.09
28 0.85
29 -0.18
3 -0.56
30 0.03
31 0.92
32 0.09
33 0.08
34 -0.15
35 -0.15
36 -0.15
37 -0.15
38 0.08
39 -0.15
4 -0.68
40 -0.15
41 0.08
5 -0.68
57 0.4
58 0.4
59 0.4
6 -0.36
60 0.4
61 0.4
62 0.4
63 0.15
64 0.15
65 0.15
66 0.15
67 0.15
68 0.15
69 0.15
7 -0.68
70 0.45
71 0.45
72 0.45
8 -0.68
9 -0.68

> <PUBCHEM_EFFECTIVE_ROTOR_COUNT>
8.4

> <PUBCHEM_PHARMACOPHORE_FEATURES>
24
1 1 acceptor
1 10 acceptor
1 10 donor
1 12 donor
1 13 donor
1 14 donor
1 2 acceptor
1 3 acceptor
1 4 acceptor
1 4 donor
1 5 acceptor
1 5 donor
1 6 acceptor
1 7 acceptor
1 7 donor
1 8 acceptor
1 8 donor
1 9 acceptor
1 9 donor
6 1 15 16 17 18 23 rings
6 11 27 28 29 30 31 rings
6 3 19 20 21 22 25 rings
6 30 31 33 34 37 38 rings
6 32 35 36 39 40 41 rings

> <PUBCHEM_HEAVY_ATOM_COUNT>
41

> <PUBCHEM_ATOM_DEF_STEREO_COUNT>
5

> <PUBCHEM_ATOM_UDEF_STEREO_COUNT>
5

> <PUBCHEM_BOND_DEF_STEREO_COUNT>
0

> <PUBCHEM_BOND_UDEF_STEREO_COUNT>
0

> <PUBCHEM_ISOTOPIC_ATOM_COUNT>
0

> <PUBCHEM_COMPONENT_COUNT>
1

> <PUBCHEM_CACTVS_TAUTO_COUNT>
53

> <PUBCHEM_CONFORMER_ID>
02A34D7200000001

> <PUBCHEM_MMFF94_ENERGY>
129.5824

> <PUBCHEM_FEATURE_SELFOVERLAP>
121.976

> <PUBCHEM_SHAPE_FINGERPRINT>
10985338 1 16826663946380567125
10985338 15 17189801360339455608
11285246 1 18040730142505191989
11434127 23 15583451710710518716
11720765 8 18342451539367857805
11763715 3 16127001588501779874
12156800 1 17689125956000222200
12202916 173 18190168165830508256
12655364 131 17772764999205992716
1361 2 18270401723652164068
13636023 20 18342732992489806959
14068700 675 17775010084840556110
15361156 5 17614039238394649414
19315092 285 17489873743537183432
20775438 99 17908127021724580431
23559900 14 18272640273850411623
44802255 64 16744554642695764556
463206 1 18341628022280143223
513532 50 18264469832476311909
550186 7 16307131546312838276
56611832 218 16318645705653047255
57527295 17 18127712610779681933
57527585 103 17246445111552733514
6004065 56 18339642351661793270
6523845 18 16805614685488211097
6669772 16 17840584026534597261

> <PUBCHEM_SHAPE_MULTIPOLES>
761.59
10.8
5.81
4.14
9.17
6.25
-6.3
-10.18
10.85
-4.8
1.86
-1.77
-2.03
-0.6

> <PUBCHEM_SHAPE_SELFOVERLAP>
1652.551

> <PUBCHEM_SHAPE_VOLUME>
409.4

> <PUBCHEM_COORDINATE_TYPE>
2
5
10

$$$$
