15555026
  -OEChem-02172602463D

 22 22  0     1  0  0  0  0  0999 V2000
    0.9551   -2.7473    0.6634 Cl  0  0  0  0  0  0  0  0  0  0  0  0
   -2.0774    2.6952   -0.4176 Cl  0  0  0  0  0  0  0  0  0  0  0  0
   -2.0376   -2.7158   -0.4715 Cl  0  0  0  0  0  0  0  0  0  0  0  0
    2.0613    0.0042    0.2798 O   0  0  0  0  0  0  0  0  0  0  0  0
   -3.1361   -0.0086   -0.4919 O   0  0  0  0  0  0  0  0  0  0  0  0
    1.9582    1.2001   -1.5681 O   0  5  0  0  0  0  0  0  0  0  0  0
    1.9334   -1.0222   -1.7464 O   0  0  0  0  0  0  0  0  0  0  0  0
    1.9770    0.0475   -1.1346 N   0  3  0  0  0  0  0  0  0  0  0  0
    0.7772   -0.0048    0.9193 C   0  0  1  0  0  0  0  0  0  0  0  0
    0.0548    1.2829    0.5045 C   0  0  0  0  0  0  0  0  0  0  0  0
    0.0471   -1.2645    0.4865 C   0  0  0  0  0  0  0  0  0  0  0  0
    0.9930   -0.0113    2.4441 C   0  0  0  0  0  0  0  0  0  0  0  0
   -1.2010    1.2657    0.0167 C   0  0  0  0  0  0  0  0  0  0  0  0
    0.8437    2.5634    0.6966 C   0  0  0  0  0  0  0  0  0  0  0  0
   -1.2002   -1.2773   -0.0040 C   0  0  0  0  0  0  0  0  0  0  0  0
   -1.9486   -0.0074   -0.1768 C   0  0  0  0  0  0  0  0  0  0  0  0
    0.0422   -0.0306    2.9886 H   0  0  0  0  0  0  0  0  0  0  0  0
    1.5911   -0.8723    2.7635 H   0  0  0  0  0  0  0  0  0  0  0  0
    1.5574    0.8697    2.7715 H   0  0  0  0  0  0  0  0  0  0  0  0
    0.5307    3.0481    1.6279 H   0  0  0  0  0  0  0  0  0  0  0  0
    0.6889    3.2651   -0.1292 H   0  0  0  0  0  0  0  0  0  0  0  0
    1.9223    2.3978    0.7724 H   0  0  0  0  0  0  0  0  0  0  0  0
  1 11  1  0  0  0  0
  2 13  1  0  0  0  0
  3 15  1  0  0  0  0
  4  8  1  0  0  0  0
  4  9  1  0  0  0  0
  5 16  2  0  0  0  0
  6  8  1  0  0  0  0
  7  8  2  0  0  0  0
  9 10  1  0  0  0  0
  9 11  1  0  0  0  0
  9 12  1  0  0  0  0
 10 13  2  0  0  0  0
 10 14  1  0  0  0  0
 11 15  2  0  0  0  0
 12 17  1  0  0  0  0
 12 18  1  0  0  0  0
 12 19  1  0  0  0  0
 13 16  1  0  0  0  0
 14 20  1  0  0  0  0
 14 21  1  0  0  0  0
 14 22  1  0  0  0  0
 15 16  1  0  0  0  0
M  CHG  2   6  -1   8   1
M  END
> <PUBCHEM_COMPOUND_CID>
15555026

> <PUBCHEM_CONFORMER_RMSD>
0.6

> <PUBCHEM_CONFORMER_DIVERSEORDER>
2
1

> <PUBCHEM_MMFF94_PARTIAL_CHARGES>
14
1 -0.14
10 -0.28
13 0.15
14 0.14
15 0.15
16 0.54
2 -0.14
3 -0.14
4 -0.27
5 -0.57
6 -0.52
7 -0.52
8 1.03
9 0.56

> <PUBCHEM_EFFECTIVE_ROTOR_COUNT>
2.2

> <PUBCHEM_PHARMACOPHORE_FEATURES>
4
1 5 acceptor
1 6 acceptor
1 7 acceptor
6 9 10 11 13 15 16 rings

> <PUBCHEM_HEAVY_ATOM_COUNT>
16

> <PUBCHEM_ATOM_DEF_STEREO_COUNT>
0

> <PUBCHEM_ATOM_UDEF_STEREO_COUNT>
1

> <PUBCHEM_BOND_DEF_STEREO_COUNT>
0

> <PUBCHEM_BOND_UDEF_STEREO_COUNT>
0

> <PUBCHEM_ISOTOPIC_ATOM_COUNT>
0

> <PUBCHEM_COMPONENT_COUNT>
1

> <PUBCHEM_CACTVS_TAUTO_COUNT>
3

> <PUBCHEM_CONFORMER_ID>
00ED59D200000002

> <PUBCHEM_MMFF94_ENERGY>
52.3307

> <PUBCHEM_FEATURE_SELFOVERLAP>
20.368

> <PUBCHEM_SHAPE_FINGERPRINT>
12423570 1 15604847197347075040
12524768 44 17837773692046605227
13024252 1 16374706281082725700
13140716 1 18193821859721578971
13299463 15 17911545360213873758
144361 1 16690201423051548106
14817 1 13243525013070398184
16945 1 18122872478630312371
20511035 2 17978212873580336387
20645476 183 18045795498089791439
22802520 49 18199199549228018687
2334 1 17905029706079220299
23402539 116 17548958405530951674
23419403 2 17417805192958510402
23559900 14 18128817448688728534
2748010 2 18049993691356647099
353137 74 18337124387965525213
430814 3 17677632876977050125
4369600 1 18119806065180799275

> <PUBCHEM_SHAPE_MULTIPOLES>
306.42
3.22
3.12
1.51
0.65
1.43
0.09
0.98
-0.02
-0.18
-0.85
-0.36
-1.25
-0.18

> <PUBCHEM_SHAPE_SELFOVERLAP>
612.764

> <PUBCHEM_SHAPE_VOLUME>
184.1

> <PUBCHEM_COORDINATE_TYPE>
2
5
10

$$$$
