101456949
  -OEChem-02172602453D

 64 66  0     1  0  0  0  0  0999 V2000
   -0.8432   -0.2171    0.2293 O   0  0  0  0  0  0  0  0  0  0  0  0
    1.0852   -1.3455   -1.1753 O   0  0  0  0  0  0  0  0  0  0  0  0
   -1.4457   -1.5962    3.0373 O   0  0  0  0  0  0  0  0  0  0  0  0
    3.5537   -2.3006   -1.0270 O   0  0  0  0  0  0  0  0  0  0  0  0
   -0.5955   -3.2410    1.6599 O   0  0  0  0  0  0  0  0  0  0  0  0
    4.9510    2.8631    0.3077 O   0  0  0  0  0  0  0  0  0  0  0  0
    0.4702    0.2439    0.5258 C   0  0  1  0  0  0  0  0  0  0  0  0
    0.7451    0.0087    2.0168 C   0  0  0  0  0  0  0  0  0  0  0  0
   -1.4405    0.5473   -0.8083 C   0  0  0  0  0  0  0  0  0  0  0  0
    1.4538   -0.4585   -0.4065 C   0  0  0  0  0  0  0  0  0  0  0  0
    0.8320   -1.4599    2.4420 C   0  0  0  0  0  0  0  0  0  0  0  0
   -2.3425   -0.3323   -1.6491 C   0  0  0  0  0  0  0  0  0  0  0  0
   -2.1499    1.7734   -0.2672 C   0  0  0  0  0  0  0  0  0  0  0  0
    2.8973   -0.0851   -0.3829 C   0  0  0  0  0  0  0  0  0  0  0  0
   -2.9819   -1.4290   -1.0714 C   0  0  0  0  0  0  0  0  0  0  0  0
   -2.7070    1.7487    1.0114 C   0  0  0  0  0  0  0  0  0  0  0  0
   -2.5336   -0.0461   -3.0009 C   0  0  0  0  0  0  0  0  0  0  0  0
   -2.2461    2.9255   -1.0477 C   0  0  0  0  0  0  0  0  0  0  0  0
   -0.4704   -2.2105    2.3092 C   0  0  0  0  0  0  0  0  0  0  0  0
    3.8838   -1.0208   -0.6942 C   0  0  0  0  0  0  0  0  0  0  0  0
    3.2558    1.2201   -0.0457 C   0  0  0  0  0  0  0  0  0  0  0  0
   -3.8121   -2.2398   -1.8454 C   0  0  0  0  0  0  0  0  0  0  0  0
   -3.3603    2.8760    1.5094 C   0  0  0  0  0  0  0  0  0  0  0  0
   -3.3639   -0.8567   -3.7750 C   0  0  0  0  0  0  0  0  0  0  0  0
   -2.8991    4.0530   -0.5495 C   0  0  0  0  0  0  0  0  0  0  0  0
    4.6006    1.5894   -0.0197 C   0  0  0  0  0  0  0  0  0  0  0  0
    5.2288   -0.6516   -0.6680 C   0  0  0  0  0  0  0  0  0  0  0  0
   -4.0032   -1.9535   -3.1972 C   0  0  0  0  0  0  0  0  0  0  0  0
   -3.4562    4.0282    0.7289 C   0  0  0  0  0  0  0  0  0  0  0  0
    5.5870    0.6534   -0.3308 C   0  0  0  0  0  0  0  0  0  0  0  0
   -2.7261   -2.2355    3.0247 C   0  0  0  0  0  0  0  0  0  0  0  0
    4.6279   -3.1883   -1.3299 C   0  0  0  0  0  0  0  0  0  0  0  0
   -3.6870   -1.4318    3.8748 C   0  0  0  0  0  0  0  0  0  0  0  0
    3.8922    3.7691    0.6148 C   0  0  0  0  0  0  0  0  0  0  0  0
    0.5116    1.3247    0.3529 H   0  0  0  0  0  0  0  0  0  0  0  0
   -0.0395    0.5057    2.6007 H   0  0  0  0  0  0  0  0  0  0  0  0
    1.6908    0.4901    2.2919 H   0  0  0  0  0  0  0  0  0  0  0  0
   -0.6439    0.8898   -1.4863 H   0  0  0  0  0  0  0  0  0  0  0  0
    1.5957   -1.9870    1.8599 H   0  0  0  0  0  0  0  0  0  0  0  0
    1.1415   -1.5257    3.4918 H   0  0  0  0  0  0  0  0  0  0  0  0
   -2.8520   -1.6670   -0.0237 H   0  0  0  0  0  0  0  0  0  0  0  0
   -2.6519    0.8603    1.6332 H   0  0  0  0  0  0  0  0  0  0  0  0
   -2.0396    0.8020   -3.4672 H   0  0  0  0  0  0  0  0  0  0  0  0
   -1.8135    2.9619   -2.0437 H   0  0  0  0  0  0  0  0  0  0  0  0
    2.4708    1.9321    0.1679 H   0  0  0  0  0  0  0  0  0  0  0  0
   -4.3107   -3.0932   -1.3952 H   0  0  0  0  0  0  0  0  0  0  0  0
   -3.7959    2.8559    2.5041 H   0  0  0  0  0  0  0  0  0  0  0  0
   -3.5121   -0.6344   -4.8277 H   0  0  0  0  0  0  0  0  0  0  0  0
   -2.9731    4.9503   -1.1568 H   0  0  0  0  0  0  0  0  0  0  0  0
    6.0494   -1.3223   -0.8974 H   0  0  0  0  0  0  0  0  0  0  0  0
   -4.6498   -2.5847   -3.7998 H   0  0  0  0  0  0  0  0  0  0  0  0
   -3.9649    4.9059    1.1167 H   0  0  0  0  0  0  0  0  0  0  0  0
    6.6360    0.9366   -0.3120 H   0  0  0  0  0  0  0  0  0  0  0  0
   -3.1046   -2.3031    2.0030 H   0  0  0  0  0  0  0  0  0  0  0  0
   -2.6288   -3.2457    3.4381 H   0  0  0  0  0  0  0  0  0  0  0  0
    4.1836   -4.1596   -1.5714 H   0  0  0  0  0  0  0  0  0  0  0  0
    5.2794   -3.3449   -0.4634 H   0  0  0  0  0  0  0  0  0  0  0  0
    5.1822   -2.8643   -2.2173 H   0  0  0  0  0  0  0  0  0  0  0  0
   -4.6755   -1.8990    3.8949 H   0  0  0  0  0  0  0  0  0  0  0  0
   -3.3151   -1.3471    4.9012 H   0  0  0  0  0  0  0  0  0  0  0  0
   -3.7866   -0.4126    3.4884 H   0  0  0  0  0  0  0  0  0  0  0  0
    4.3530    4.7320    0.8589 H   0  0  0  0  0  0  0  0  0  0  0  0
    3.3326    3.4509    1.5011 H   0  0  0  0  0  0  0  0  0  0  0  0
    3.2427    3.9382   -0.2508 H   0  0  0  0  0  0  0  0  0  0  0  0
  1  7  1  0  0  0  0
  1  9  1  0  0  0  0
  2 10  2  0  0  0  0
  3 19  1  0  0  0  0
  3 31  1  0  0  0  0
  4 20  1  0  0  0  0
  4 32  1  0  0  0  0
  5 19  2  0  0  0  0
  6 26  1  0  0  0  0
  6 34  1  0  0  0  0
  7  8  1  0  0  0  0
  7 10  1  0  0  0  0
  7 35  1  0  0  0  0
  8 11  1  0  0  0  0
  8 36  1  0  0  0  0
  8 37  1  0  0  0  0
  9 12  1  0  0  0  0
  9 13  1  0  0  0  0
  9 38  1  0  0  0  0
 10 14  1  0  0  0  0
 11 19  1  0  0  0  0
 11 39  1  0  0  0  0
 11 40  1  0  0  0  0
 12 15  2  0  0  0  0
 12 17  1  0  0  0  0
 13 16  2  0  0  0  0
 13 18  1  0  0  0  0
 14 20  2  0  0  0  0
 14 21  1  0  0  0  0
 15 22  1  0  0  0  0
 15 41  1  0  0  0  0
 16 23  1  0  0  0  0
 16 42  1  0  0  0  0
 17 24  2  0  0  0  0
 17 43  1  0  0  0  0
 18 25  2  0  0  0  0
 18 44  1  0  0  0  0
 20 27  1  0  0  0  0
 21 26  2  0  0  0  0
 21 45  1  0  0  0  0
 22 28  2  0  0  0  0
 22 46  1  0  0  0  0
 23 29  2  0  0  0  0
 23 47  1  0  0  0  0
 24 28  1  0  0  0  0
 24 48  1  0  0  0  0
 25 29  1  0  0  0  0
 25 49  1  0  0  0  0
 26 30  1  0  0  0  0
 27 30  2  0  0  0  0
 27 50  1  0  0  0  0
 28 51  1  0  0  0  0
 29 52  1  0  0  0  0
 30 53  1  0  0  0  0
 31 33  1  0  0  0  0
 31 54  1  0  0  0  0
 31 55  1  0  0  0  0
 32 56  1  0  0  0  0
 32 57  1  0  0  0  0
 32 58  1  0  0  0  0
 33 59  1  0  0  0  0
 33 60  1  0  0  0  0
 33 61  1  0  0  0  0
 34 62  1  0  0  0  0
 34 63  1  0  0  0  0
 34 64  1  0  0  0  0
M  END
> <PUBCHEM_COMPOUND_CID>
101456949

> <PUBCHEM_CONFORMER_RMSD>
1.2

> <PUBCHEM_CONFORMER_DIVERSEORDER>
1
15
58
27
50
47
76
70
55
66
46
68
44
73
62
29
6
56
35
33
74
40
19
43
8
77
85
9
28
3
81
80
34
12
59
72
30
79
52
64
24
48
65
13
69
84
22
42
26
23
75
60
71
37
53
54
21
49
82
25
57
16
45
11
4
67
41
39
2
36
63
18
32
61
38
51
7
31
20
10
78
5
14
83
17

> <PUBCHEM_MMFF94_PARTIAL_CHARGES>
45
1 -0.56
10 0.42
11 0.06
12 -0.14
13 -0.14
14 0.09
15 -0.15
16 -0.15
17 -0.15
18 -0.15
19 0.66
2 -0.57
20 0.08
21 -0.15
22 -0.15
23 -0.15
24 -0.15
25 -0.15
26 0.08
27 -0.15
28 -0.15
29 -0.15
3 -0.43
30 -0.15
31 0.28
32 0.28
34 0.28
4 -0.36
41 0.15
42 0.15
43 0.15
44 0.15
45 0.15
46 0.15
47 0.15
48 0.15
49 0.15
5 -0.57
50 0.15
51 0.15
52 0.15
53 0.15
6 -0.36
7 0.34
9 0.57

> <PUBCHEM_EFFECTIVE_ROTOR_COUNT>
13

> <PUBCHEM_PHARMACOPHORE_FEATURES>
8
1 1 acceptor
1 2 acceptor
1 4 acceptor
1 5 acceptor
1 6 acceptor
6 12 15 17 22 24 28 rings
6 13 16 18 23 25 29 rings
6 14 20 21 26 27 30 rings

> <PUBCHEM_HEAVY_ATOM_COUNT>
34

> <PUBCHEM_ATOM_DEF_STEREO_COUNT>
1

> <PUBCHEM_ATOM_UDEF_STEREO_COUNT>
0

> <PUBCHEM_BOND_DEF_STEREO_COUNT>
0

> <PUBCHEM_BOND_UDEF_STEREO_COUNT>
0

> <PUBCHEM_ISOTOPIC_ATOM_COUNT>
0

> <PUBCHEM_COMPONENT_COUNT>
1

> <PUBCHEM_CACTVS_TAUTO_COUNT>
2

> <PUBCHEM_CONFORMER_ID>
060C1C3500000001

> <PUBCHEM_MMFF94_ENERGY>
104.8579

> <PUBCHEM_FEATURE_SELFOVERLAP>
40.618

> <PUBCHEM_SHAPE_FINGERPRINT>
10165383 225 17099774563774455344
10169797 241 17038061553748332143
10369192 42 16156838911101618646
12160290 23 17023764436072927618
12714826 92 16702009907329570879
133893 2 17026816465661362403
13583140 156 18268452173434681442
13911987 19 17689997156041730508
140371 6 18117559754446582300
14955137 171 17176862329263200706
15131766 46 17558563653666214216
15276724 80 18273491282765247373
15361156 5 18266473027288788764
16114785 44 18341902904660935017
20600515 1 17026585868861972251
23419403 2 17392204314646834345
249057 3 17842275870303441532
340366 18 17843123606563947892
4015057 19 18409726266873226054
469060 322 18057884838695647673
4742675 86 18338238296371078792
5080951 261 17313104202472199426
57527295 17 18337114463182697750
57527585 103 17822299027842482717
57527585 21 18193568971715569796
633830 44 18115591427043219508
6523845 18 16879080641729982902
70251023 43 18057307578296038461
7399639 24 18050583021347704880
9981440 41 18126829711759034856

> <PUBCHEM_SHAPE_MULTIPOLES>
664.49
10.45
4.71
3.71
13.26
3.99
1.55
1.75
-3.94
-1.8
0.46
-6.44
-3.79
0.14

> <PUBCHEM_SHAPE_SELFOVERLAP>
1408.886

> <PUBCHEM_SHAPE_VOLUME>
369.6

> <PUBCHEM_COORDINATE_TYPE>
2
5
10

$$$$
