5315865
  -OEChem-02172602483D

 41 43  0     1  0  0  0  0  0999 V2000
    1.0466    2.1310   -0.1872 O   0  0  0  0  0  0  0  0  0  0  0  0
    4.0291   -0.0629    0.0369 O   0  0  0  0  0  0  0  0  0  0  0  0
   -3.5800    1.2820   -0.2380 O   0  0  0  0  0  0  0  0  0  0  0  0
   -0.5111   -2.4029    0.3669 O   0  0  0  0  0  0  0  0  0  0  0  0
   -3.0837   -2.7215    0.3299 O   0  0  0  0  0  0  0  0  0  0  0  0
    4.0533   -1.8688   -1.4036 O   0  0  0  0  0  0  0  0  0  0  0  0
    2.3825    1.7342    0.1804 C   0  0  0  0  0  0  0  0  0  0  0  0
    2.7108    0.3191   -0.3376 C   0  0  2  0  0  0  0  0  0  0  0  0
    1.7151   -0.7058    0.1943 C   0  0  0  0  0  0  0  0  0  0  0  0
    0.3139   -0.1862    0.0796 C   0  0  0  0  0  0  0  0  0  0  0  0
    0.0643    1.1806   -0.0948 C   0  0  0  0  0  0  0  0  0  0  0  0
    2.5410    1.8820    1.7041 C   0  0  0  0  0  0  0  0  0  0  0  0
    3.3166    2.7545   -0.4926 C   0  0  0  0  0  0  0  0  0  0  0  0
   -0.7662   -1.0754    0.1749 C   0  0  0  0  0  0  0  0  0  0  0  0
   -1.2480    1.6498   -0.2089 C   0  0  0  0  0  0  0  0  0  0  0  0
   -2.0753   -0.5988    0.0703 C   0  0  0  0  0  0  0  0  0  0  0  0
   -2.3168    0.7584   -0.1244 C   0  0  0  0  0  0  0  0  0  0  0  0
   -3.2207   -1.5179    0.1607 C   0  0  0  0  0  0  0  0  0  0  0  0
    4.4246   -1.2969   -0.3877 C   0  0  0  0  0  0  0  0  0  0  0  0
   -4.6607    0.4189   -0.1536 C   0  0  0  0  0  0  0  0  0  0  0  0
   -4.5570   -0.9050    0.0330 C   0  0  0  0  0  0  0  0  0  0  0  0
    5.4052   -1.8725    0.5887 C   0  0  0  0  0  0  0  0  0  0  0  0
   -5.9836    1.1041   -0.2913 C   0  0  0  0  0  0  0  0  0  0  0  0
    2.6429    0.3368   -1.4357 H   0  0  0  0  0  0  0  0  0  0  0  0
    1.9300   -0.9529    1.2416 H   0  0  0  0  0  0  0  0  0  0  0  0
    1.8025   -1.6390   -0.3732 H   0  0  0  0  0  0  0  0  0  0  0  0
    2.2973    2.9036    2.0189 H   0  0  0  0  0  0  0  0  0  0  0  0
    1.8541    1.2286    2.2514 H   0  0  0  0  0  0  0  0  0  0  0  0
    3.5615    1.6570    2.0304 H   0  0  0  0  0  0  0  0  0  0  0  0
    3.2077    2.7200   -1.5829 H   0  0  0  0  0  0  0  0  0  0  0  0
    3.0591    3.7770   -0.1921 H   0  0  0  0  0  0  0  0  0  0  0  0
    4.3677    2.5768   -0.2434 H   0  0  0  0  0  0  0  0  0  0  0  0
   -1.4356    2.7107   -0.3568 H   0  0  0  0  0  0  0  0  0  0  0  0
   -1.3335   -2.9099    0.4360 H   0  0  0  0  0  0  0  0  0  0  0  0
   -5.4226   -1.5541    0.0947 H   0  0  0  0  0  0  0  0  0  0  0  0
    4.9338   -1.9754    1.5694 H   0  0  0  0  0  0  0  0  0  0  0  0
    6.2874   -1.2305    0.6505 H   0  0  0  0  0  0  0  0  0  0  0  0
    5.7180   -2.8633    0.2471 H   0  0  0  0  0  0  0  0  0  0  0  0
   -6.0478    1.6097   -1.2602 H   0  0  0  0  0  0  0  0  0  0  0  0
   -6.1049    1.8530    0.4979 H   0  0  0  0  0  0  0  0  0  0  0  0
   -6.8220    0.4033   -0.2215 H   0  0  0  0  0  0  0  0  0  0  0  0
  1  7  1  0  0  0  0
  1 11  1  0  0  0  0
  2  8  1  0  0  0  0
  2 19  1  0  0  0  0
  3 17  1  0  0  0  0
  3 20  1  0  0  0  0
  4 14  1  0  0  0  0
  4 34  1  0  0  0  0
  5 18  2  0  0  0  0
  6 19  2  0  0  0  0
  7  8  1  0  0  0  0
  7 12  1  0  0  0  0
  7 13  1  0  0  0  0
  8  9  1  0  0  0  0
  8 24  1  0  0  0  0
  9 10  1  0  0  0  0
  9 25  1  0  0  0  0
  9 26  1  0  0  0  0
 10 11  2  0  0  0  0
 10 14  1  0  0  0  0
 11 15  1  0  0  0  0
 12 27  1  0  0  0  0
 12 28  1  0  0  0  0
 12 29  1  0  0  0  0
 13 30  1  0  0  0  0
 13 31  1  0  0  0  0
 13 32  1  0  0  0  0
 14 16  2  0  0  0  0
 15 17  2  0  0  0  0
 15 33  1  0  0  0  0
 16 17  1  0  0  0  0
 16 18  1  0  0  0  0
 18 21  1  0  0  0  0
 19 22  1  0  0  0  0
 20 21  2  0  0  0  0
 20 23  1  0  0  0  0
 21 35  1  0  0  0  0
 22 36  1  0  0  0  0
 22 37  1  0  0  0  0
 22 38  1  0  0  0  0
 23 39  1  0  0  0  0
 23 40  1  0  0  0  0
 23 41  1  0  0  0  0
M  END
> <PUBCHEM_COMPOUND_CID>
5315865

> <PUBCHEM_CONFORMER_RMSD>
0.6

> <PUBCHEM_CONFORMER_DIVERSEORDER>
1
2

> <PUBCHEM_MMFF94_PARTIAL_CHARGES>
24
1 -0.36
10 -0.14
11 0.08
14 0.08
15 -0.15
16 0.09
17 0.08
18 0.47
19 0.66
2 -0.43
20 -0.06
21 -0.14
22 0.06
23 0.14
3 -0.16
33 0.15
34 0.45
35 0.15
4 -0.53
5 -0.57
6 -0.57
7 0.28
8 0.28
9 0.14

> <PUBCHEM_EFFECTIVE_ROTOR_COUNT>
2.8

> <PUBCHEM_PHARMACOPHORE_FEATURES>
9
1 1 acceptor
1 3 acceptor
1 4 donor
1 5 acceptor
1 6 acceptor
3 7 12 13 hydrophobe
6 1 7 8 9 10 11 rings
6 10 11 14 15 16 17 rings
6 3 16 17 18 20 21 rings

> <PUBCHEM_HEAVY_ATOM_COUNT>
23

> <PUBCHEM_ATOM_DEF_STEREO_COUNT>
1

> <PUBCHEM_ATOM_UDEF_STEREO_COUNT>
0

> <PUBCHEM_BOND_DEF_STEREO_COUNT>
0

> <PUBCHEM_BOND_UDEF_STEREO_COUNT>
0

> <PUBCHEM_ISOTOPIC_ATOM_COUNT>
0

> <PUBCHEM_COMPONENT_COUNT>
1

> <PUBCHEM_CACTVS_TAUTO_COUNT>
14

> <PUBCHEM_CONFORMER_ID>
00511D1900000001

> <PUBCHEM_MMFF94_ENERGY>
71.8461

> <PUBCHEM_FEATURE_SELFOVERLAP>
45.728

> <PUBCHEM_SHAPE_FINGERPRINT>
10616163 171 17977388561665449558
10967382 1 18408884027685568465
11405975 8 18412546530718685179
11578080 2 17058350716627634395
11963148 33 17760925547222229794
12236239 1 17386009438275986806
12403259 226 18410287034266102581
12403259 415 18114455691698543301
13134695 92 17703782614019308576
13140716 1 18411134753319515179
13533116 47 18131633395928687049
13544592 145 18411135822924776573
13583140 156 17559388274200754953
13862211 1 18337387149864932367
14178342 30 17693360553731613074
14790565 3 18337116662021648637
14866123 147 17695357975068917288
15099037 51 18410293579948807391
15196674 1 18337391638427198269
15536298 74 18412261778497414977
15848702 151 17988650640188620911
17492 89 18192995039493959203
17804303 29 18410014316563593540
1813 80 17167575016472902644
18186145 218 18187072975445230479
19141452 34 18272650151663450935
19591789 44 18408886265115967195
200 152 17775282764177535215
20028762 73 18201994435014786999
20374829 77 18408603634745379718
20645477 70 18412545439765362862
20691752 17 17313655044511782314
20832881 197 18336828602384611794
21065198 57 18339642342866149401
21267235 1 18408611353223590835
21279426 13 18410011009976950021
21452121 103 18270389616086745896
21521239 73 18129362917961582687
21859007 373 17824799201178017325
221490 88 18336272352559098954
2215653 11 18343019969498172797
23366157 5 18041279993245898292
23402539 116 18341606001887598119
23559900 14 18411698815980962044
2748010 2 18409162251071407765
3004659 81 18188215312904428838
3286 77 17989485225438523888
335352 9 18409166580625120383
3411729 13 18269262621564733624
350125 39 18408886204749106661
4214541 1 18409730668771254973
495365 180 17632005459649180120
5104073 3 18340208587170056011
59755656 215 18262796242935602837
6138700 20 18264489486183874522
633830 44 17677046953438585345
7364860 26 18270400611471996560
9709674 26 18191308375708238779
9981440 41 17542506480332955960

> <PUBCHEM_SHAPE_MULTIPOLES>
438.11
11.07
2.8
0.86
3.46
0.02
0.13
2.27
-0.75
-1.66
0.08
-0.75
-0.11
0.7

> <PUBCHEM_SHAPE_SELFOVERLAP>
955.469

> <PUBCHEM_SHAPE_VOLUME>
237.8

> <PUBCHEM_COORDINATE_TYPE>
2
5
10

$$$$
