10183139
  -OEChem-02172602533D

 61 64  0     0  0  0  0  0  0999 V2000
    5.3516    3.2686    0.5421 Cl  0  0  0  0  0  0  0  0  0  0  0  0
   -3.6571    0.9042    0.7810 O   0  0  0  0  0  0  0  0  0  0  0  0
    1.1042   -2.4340   -2.1413 O   0  0  0  0  0  0  0  0  0  0  0  0
   -3.7971    1.1945   -1.5153 N   0  0  0  0  0  0  0  0  0  0  0  0
    0.9545   -1.7040    0.0489 N   0  0  0  0  0  0  0  0  0  0  0  0
   -1.4979    2.6304   -1.2829 N   0  0  0  0  0  0  0  0  0  0  0  0
   -5.2420   -0.7110   -1.9001 C   0  0  0  0  0  0  0  0  0  0  0  0
   -6.5254   -1.4364   -1.6209 C   0  0  0  0  0  0  0  0  0  0  0  0
   -5.3366   -1.6449   -0.7294 C   0  0  0  0  0  0  0  0  0  0  0  0
   -5.1677    0.7579   -1.6561 C   0  0  0  0  0  0  0  0  0  0  0  0
   -3.1243    1.2390   -0.2901 C   0  0  0  0  0  0  0  0  0  0  0  0
   -1.7513    1.7268   -0.3096 C   0  0  0  0  0  0  0  0  0  0  0  0
    3.1793   -2.1926   -0.8805 C   0  0  0  0  0  0  0  0  0  0  0  0
   -0.8072    1.2849    0.6032 C   0  0  0  0  0  0  0  0  0  0  0  0
    3.7325   -0.8056   -0.5188 C   0  0  0  0  0  0  0  0  0  0  0  0
    1.6451   -2.1292   -1.0785 C   0  0  0  0  0  0  0  0  0  0  0  0
   -1.1213    0.3133    1.6318 C   0  0  0  0  0  0  0  0  0  0  0  0
    3.8484   -2.6472   -2.1981 C   0  0  0  0  0  0  0  0  0  0  0  0
    3.4615   -3.2918    0.1691 C   0  0  0  0  0  0  0  0  0  0  0  0
   -0.9732   -1.0542    1.3999 C   0  0  0  0  0  0  0  0  0  0  0  0
   -0.4839   -1.5776    0.0805 C   0  0  0  0  0  0  0  0  0  0  0  0
    0.4795    1.8037    0.5115 C   0  0  0  0  0  0  0  0  0  0  0  0
    4.4011   -0.6145    0.6903 C   0  0  0  0  0  0  0  0  0  0  0  0
    3.5652    0.2629   -1.3999 C   0  0  0  0  0  0  0  0  0  0  0  0
   -1.5781    0.7653    2.8698 C   0  0  0  0  0  0  0  0  0  0  0  0
   -1.2817   -1.9696    2.4063 C   0  0  0  0  0  0  0  0  0  0  0  0
   -0.2363    3.1125   -1.3410 C   0  0  0  0  0  0  0  0  0  0  0  0
    0.7788    2.7354   -0.4764 C   0  0  0  0  0  0  0  0  0  0  0  0
    4.9026    0.6453    1.0185 C   0  0  0  0  0  0  0  0  0  0  0  0
    4.0665    1.5224   -1.0718 C   0  0  0  0  0  0  0  0  0  0  0  0
   -1.8866   -0.1502    3.8761 C   0  0  0  0  0  0  0  0  0  0  0  0
   -1.7385   -1.5176    3.6443 C   0  0  0  0  0  0  0  0  0  0  0  0
    4.7353    1.7136    0.1373 C   0  0  0  0  0  0  0  0  0  0  0  0
   -4.6711   -1.0270   -2.7649 H   0  0  0  0  0  0  0  0  0  0  0  0
   -7.3629   -0.8775   -1.2217 H   0  0  0  0  0  0  0  0  0  0  0  0
   -6.8034   -2.2442   -2.2868 H   0  0  0  0  0  0  0  0  0  0  0  0
   -4.8130   -2.5908   -0.7978 H   0  0  0  0  0  0  0  0  0  0  0  0
   -5.3859   -1.2347    0.2714 H   0  0  0  0  0  0  0  0  0  0  0  0
   -5.7299    1.0540   -0.7631 H   0  0  0  0  0  0  0  0  0  0  0  0
   -5.5886    1.2948   -2.5124 H   0  0  0  0  0  0  0  0  0  0  0  0
   -3.3001    1.4738   -2.3564 H   0  0  0  0  0  0  0  0  0  0  0  0
    3.5970   -1.9975   -3.0442 H   0  0  0  0  0  0  0  0  0  0  0  0
    4.9409   -2.6619   -2.1049 H   0  0  0  0  0  0  0  0  0  0  0  0
    3.5254   -3.6580   -2.4757 H   0  0  0  0  0  0  0  0  0  0  0  0
    4.5369   -3.4642    0.2955 H   0  0  0  0  0  0  0  0  0  0  0  0
    3.0377   -3.0588    1.1523 H   0  0  0  0  0  0  0  0  0  0  0  0
    3.0145   -4.2449   -0.1404 H   0  0  0  0  0  0  0  0  0  0  0  0
   -0.8057   -0.9663   -0.7689 H   0  0  0  0  0  0  0  0  0  0  0  0
   -0.9046   -2.5733   -0.1109 H   0  0  0  0  0  0  0  0  0  0  0  0
    1.4758   -1.4650    0.8874 H   0  0  0  0  0  0  0  0  0  0  0  0
    1.2596    1.4969    1.2039 H   0  0  0  0  0  0  0  0  0  0  0  0
    4.5575   -1.4118    1.4084 H   0  0  0  0  0  0  0  0  0  0  0  0
    3.0376    0.1409   -2.3417 H   0  0  0  0  0  0  0  0  0  0  0  0
   -1.6993    1.8275    3.0691 H   0  0  0  0  0  0  0  0  0  0  0  0
   -1.1691   -3.0379    2.2413 H   0  0  0  0  0  0  0  0  0  0  0  0
   -0.0558    3.8400   -2.1254 H   0  0  0  0  0  0  0  0  0  0  0  0
    1.7660    3.1723   -0.5568 H   0  0  0  0  0  0  0  0  0  0  0  0
    5.4212    0.7805    1.9642 H   0  0  0  0  0  0  0  0  0  0  0  0
    3.9301    2.3454   -1.7687 H   0  0  0  0  0  0  0  0  0  0  0  0
   -2.2420    0.2017    4.8402 H   0  0  0  0  0  0  0  0  0  0  0  0
   -1.9782   -2.2303    4.4280 H   0  0  0  0  0  0  0  0  0  0  0  0
  1 33  1  0  0  0  0
  2 11  2  0  0  0  0
  3 16  2  0  0  0  0
  4 10  1  0  0  0  0
  4 11  1  0  0  0  0
  4 41  1  0  0  0  0
  5 16  1  0  0  0  0
  5 21  1  0  0  0  0
  5 50  1  0  0  0  0
  6 12  1  0  0  0  0
  6 27  2  0  0  0  0
  7  8  1  0  0  0  0
  7  9  1  0  0  0  0
  7 10  1  0  0  0  0
  7 34  1  0  0  0  0
  8  9  1  0  0  0  0
  8 35  1  0  0  0  0
  8 36  1  0  0  0  0
  9 37  1  0  0  0  0
  9 38  1  0  0  0  0
 10 39  1  0  0  0  0
 10 40  1  0  0  0  0
 11 12  1  0  0  0  0
 12 14  2  0  0  0  0
 13 15  1  0  0  0  0
 13 16  1  0  0  0  0
 13 18  1  0  0  0  0
 13 19  1  0  0  0  0
 14 17  1  0  0  0  0
 14 22  1  0  0  0  0
 15 23  2  0  0  0  0
 15 24  1  0  0  0  0
 17 20  1  0  0  0  0
 17 25  2  0  0  0  0
 18 42  1  0  0  0  0
 18 43  1  0  0  0  0
 18 44  1  0  0  0  0
 19 45  1  0  0  0  0
 19 46  1  0  0  0  0
 19 47  1  0  0  0  0
 20 21  1  0  0  0  0
 20 26  2  0  0  0  0
 21 48  1  0  0  0  0
 21 49  1  0  0  0  0
 22 28  2  0  0  0  0
 22 51  1  0  0  0  0
 23 29  1  0  0  0  0
 23 52  1  0  0  0  0
 24 30  2  0  0  0  0
 24 53  1  0  0  0  0
 25 31  1  0  0  0  0
 25 54  1  0  0  0  0
 26 32  1  0  0  0  0
 26 55  1  0  0  0  0
 27 28  1  0  0  0  0
 27 56  1  0  0  0  0
 28 57  1  0  0  0  0
 29 33  2  0  0  0  0
 29 58  1  0  0  0  0
 30 33  1  0  0  0  0
 30 59  1  0  0  0  0
 31 32  2  0  0  0  0
 31 60  1  0  0  0  0
 32 61  1  0  0  0  0
M  END
> <PUBCHEM_COMPOUND_CID>
10183139

> <PUBCHEM_CONFORMER_RMSD>
1

> <PUBCHEM_CONFORMER_DIVERSEORDER>
1
88
170
61
153
16
45
146
230
231
101
10
212
103
51
157
97
18
182
204
55
81
68
32
107
147
91
74
169
202
130
223
208
158
197
194
141
151
167
2
154
84
52
35
66
217
205
29
148
233
150
210
216
229
213
70
211
49
181
176
121
98
59
67
122
175
47
159
152
168
71
220
198
99
33
53
201
225
82
120
221
164
72
117
142
192
79
83
113
127
228
177
145
143
160
11
115
187
118
139
4
206
23
178
89
100
64
203
215
108
86
15
111
76
125
94
156
174
90
93
41
163
190
109
131
9
226
85
80
185
128
134
138
30
34
63
227
43
87
31
137
196
184
69
133
171
102
54
92
144
50
56
136
40
124
135
129
172
188
62
222
37
13
219
36
75
112
44
39
140
224
191
165
106
218
17
21
162
180
179
3
38
25
20
12
78
207
24
195
14
199
232
46
161
214
7
200
110
104
58
6
48
126
209
166
105
95
8
189
183
65
114
57
77
132
27
60
96
193
119
28
155
186
19
5
26
173
22
42
149
73
123
116

> <PUBCHEM_MMFF94_PARTIAL_CHARGES>
47
1 -0.18
10 0.4
11 0.54
12 0.4
13 0.2
15 -0.14
16 0.57
2 -0.57
20 -0.14
21 0.44
22 -0.15
23 -0.15
24 -0.15
25 -0.15
26 -0.15
27 0.16
28 -0.15
29 -0.15
3 -0.57
30 -0.15
31 -0.15
32 -0.15
33 0.18
34 0.1
35 0.1
36 0.1
37 0.1
38 0.1
4 -0.73
41 0.37
5 -0.73
50 0.37
51 0.15
52 0.15
53 0.15
54 0.15
55 0.15
56 0.15
57 0.15
58 0.15
59 0.15
6 -0.62
60 0.15
61 0.15
7 -0.19
8 -0.2
9 -0.2

> <PUBCHEM_EFFECTIVE_ROTOR_COUNT>
10.6

> <PUBCHEM_PHARMACOPHORE_FEATURES>
9
1 2 acceptor
1 3 acceptor
1 4 donor
1 5 donor
1 6 acceptor
3 13 18 19 hydrophobe
6 15 23 24 29 30 33 rings
6 17 20 25 26 31 32 rings
6 6 12 14 22 27 28 rings

> <PUBCHEM_HEAVY_ATOM_COUNT>
33

> <PUBCHEM_ATOM_DEF_STEREO_COUNT>
0

> <PUBCHEM_ATOM_UDEF_STEREO_COUNT>
0

> <PUBCHEM_BOND_DEF_STEREO_COUNT>
0

> <PUBCHEM_BOND_UDEF_STEREO_COUNT>
0

> <PUBCHEM_ISOTOPIC_ATOM_COUNT>
0

> <PUBCHEM_COMPONENT_COUNT>
1

> <PUBCHEM_CACTVS_TAUTO_COUNT>
4

> <PUBCHEM_CONFORMER_ID>
009B61E300000001

> <PUBCHEM_MMFF94_ENERGY>
97.8822

> <PUBCHEM_FEATURE_SELFOVERLAP>
45.671

> <PUBCHEM_SHAPE_FINGERPRINT>
11135609 12 10231761072571857518
11135609 187 18200024178533265897
11578080 2 16009885011524724878
11672396 43 17774997943765271142
11763715 3 17274283693622030064
11991303 11 14779270826226489073
12035758 1 17750823050097594489
12156800 1 15964464126589936244
12645989 146 18052539864251409806
13583140 156 18189914032383670610
1361 2 18340198704276753716
15721738 202 17847062190527458127
15775530 1 17390241656337773213
15840311 113 17913511047119997113
17809404 112 17895202138132993826
17909252 39 18342169016581870781
1813 80 14620494732493286467
20775438 99 18337372925081480671
21315764 371 17561368396021759484
22182313 1 18042144144248521688
23559900 14 17750817479619449494
2838139 119 12757142464496906919
469060 322 18121788493562869658
508706 21 17970926461768335788
6669772 16 17823119267795836665

> <PUBCHEM_SHAPE_MULTIPOLES>
654.31
11.81
3.81
3.06
4.52
0.24
-3.1
-0.29
6.32
-3.56
1.27
3.06
-1.33
1.5

> <PUBCHEM_SHAPE_SELFOVERLAP>
1401.282

> <PUBCHEM_SHAPE_VOLUME>
363.6

> <PUBCHEM_COORDINATE_TYPE>
2
5
10

$$$$
