183691
  -OEChem-02172602333D

 41 41  0     1  0  0  0  0  0999 V2000
   -0.5180   -2.8712   -0.1045 O   0  0  0  0  0  0  0  0  0  0  0  0
   -1.7235   -1.9352    1.8113 O   0  0  0  0  0  0  0  0  0  0  0  0
   -1.0763   -0.4858    0.0257 C   0  0  1  0  0  0  0  0  0  0  0  0
   -0.5389    0.9305   -0.3726 C   0  0  2  0  0  0  0  0  0  0  0  0
   -0.1146   -1.5721   -0.5410 C   0  0  1  0  0  0  0  0  0  0  0  0
    1.8429    0.0327   -0.5252 C   0  0  2  0  0  0  0  0  0  0  0  0
    0.9335    1.1288    0.0414 C   0  0  0  0  0  0  0  0  0  0  0  0
    1.3454   -1.3570   -0.1313 C   0  0  0  0  0  0  0  0  0  0  0  0
   -1.2359   -0.6376    1.5567 C   0  0  0  0  0  0  0  0  0  0  0  0
   -1.3588    2.0785    0.1579 C   0  0  0  0  0  0  0  0  0  0  0  0
   -2.4396   -0.7028   -0.6031 C   0  0  0  0  0  0  0  0  0  0  0  0
    3.2598    0.2267   -0.0783 C   0  0  0  0  0  0  0  0  0  0  0  0
   -2.4936    2.5371   -0.7091 C   0  0  0  0  0  0  0  0  0  0  0  0
    4.2690    0.4625   -1.1625 C   0  0  0  0  0  0  0  0  0  0  0  0
   -1.0892    2.6565    1.3378 C   0  0  0  0  0  0  0  0  0  0  0  0
   -2.6677   -0.6837   -1.9206 C   0  0  0  0  0  0  0  0  0  0  0  0
    3.6056    0.1921    1.2172 C   0  0  0  0  0  0  0  0  0  0  0  0
   -0.5301    1.0123   -1.4696 H   0  0  0  0  0  0  0  0  0  0  0  0
   -0.1431   -1.5898   -1.6367 H   0  0  0  0  0  0  0  0  0  0  0  0
    1.8020    0.1026   -1.6213 H   0  0  0  0  0  0  0  0  0  0  0  0
    1.0380    1.1237    1.1308 H   0  0  0  0  0  0  0  0  0  0  0  0
    1.2909    2.1081   -0.3074 H   0  0  0  0  0  0  0  0  0  0  0  0
    1.9640   -2.1299   -0.6078 H   0  0  0  0  0  0  0  0  0  0  0  0
    1.4517   -1.5384    0.9457 H   0  0  0  0  0  0  0  0  0  0  0  0
   -1.9432    0.0787    1.9875 H   0  0  0  0  0  0  0  0  0  0  0  0
   -0.2856   -0.5242    2.0851 H   0  0  0  0  0  0  0  0  0  0  0  0
   -3.3059   -0.8359    0.0403 H   0  0  0  0  0  0  0  0  0  0  0  0
   -0.2948   -2.9626    0.8368 H   0  0  0  0  0  0  0  0  0  0  0  0
   -2.1758    2.6362   -1.7520 H   0  0  0  0  0  0  0  0  0  0  0  0
   -3.3422    1.8515   -0.6572 H   0  0  0  0  0  0  0  0  0  0  0  0
   -2.8599    3.5218   -0.3966 H   0  0  0  0  0  0  0  0  0  0  0  0
    4.2931   -0.3884   -1.8512 H   0  0  0  0  0  0  0  0  0  0  0  0
    4.0143    1.3638   -1.7295 H   0  0  0  0  0  0  0  0  0  0  0  0
    5.2799    0.5956   -0.7628 H   0  0  0  0  0  0  0  0  0  0  0  0
   -1.7011    3.4830    1.6891 H   0  0  0  0  0  0  0  0  0  0  0  0
   -0.3047    2.3465    2.0141 H   0  0  0  0  0  0  0  0  0  0  0  0
   -2.6947   -1.9063    1.8021 H   0  0  0  0  0  0  0  0  0  0  0  0
   -3.6755   -0.8226   -2.2981 H   0  0  0  0  0  0  0  0  0  0  0  0
   -1.8826   -0.5267   -2.6506 H   0  0  0  0  0  0  0  0  0  0  0  0
    4.6368    0.3350    1.5239 H   0  0  0  0  0  0  0  0  0  0  0  0
    2.8828    0.0207    2.0072 H   0  0  0  0  0  0  0  0  0  0  0  0
  1  5  1  0  0  0  0
  1 28  1  0  0  0  0
  2  9  1  0  0  0  0
  2 37  1  0  0  0  0
  3  4  1  0  0  0  0
  3  5  1  0  0  0  0
  3  9  1  0  0  0  0
  3 11  1  0  0  0  0
  4  7  1  0  0  0  0
  4 10  1  0  0  0  0
  4 18  1  0  0  0  0
  5  8  1  0  0  0  0
  5 19  1  0  0  0  0
  6  7  1  0  0  0  0
  6  8  1  0  0  0  0
  6 12  1  0  0  0  0
  6 20  1  0  0  0  0
  7 21  1  0  0  0  0
  7 22  1  0  0  0  0
  8 23  1  0  0  0  0
  8 24  1  0  0  0  0
  9 25  1  0  0  0  0
  9 26  1  0  0  0  0
 10 13  1  0  0  0  0
 10 15  2  0  0  0  0
 11 16  2  0  0  0  0
 11 27  1  0  0  0  0
 12 14  1  0  0  0  0
 12 17  2  0  0  0  0
 13 29  1  0  0  0  0
 13 30  1  0  0  0  0
 13 31  1  0  0  0  0
 14 32  1  0  0  0  0
 14 33  1  0  0  0  0
 14 34  1  0  0  0  0
 15 35  1  0  0  0  0
 15 36  1  0  0  0  0
 16 38  1  0  0  0  0
 16 39  1  0  0  0  0
 17 40  1  0  0  0  0
 17 41  1  0  0  0  0
M  END
> <PUBCHEM_COMPOUND_CID>
183691

> <PUBCHEM_CONFORMER_RMSD>
0.6

> <PUBCHEM_CONFORMER_DIVERSEORDER>
1
6
7
2
3
4
5
8

> <PUBCHEM_MMFF94_PARTIAL_CHARGES>
24
1 -0.68
10 -0.28
11 -0.29
12 -0.28
13 0.14
14 0.14
15 -0.3
16 -0.3
17 -0.3
2 -0.68
27 0.15
28 0.4
3 0.14
35 0.15
36 0.15
37 0.4
38 0.15
39 0.15
4 0.14
40 0.15
41 0.15
5 0.28
6 0.14
9 0.28

> <PUBCHEM_EFFECTIVE_ROTOR_COUNT>
5.2

> <PUBCHEM_PHARMACOPHORE_FEATURES>
6
1 1 acceptor
1 1 donor
1 16 hydrophobe
1 2 acceptor
1 2 donor
6 3 4 5 6 7 8 rings

> <PUBCHEM_HEAVY_ATOM_COUNT>
17

> <PUBCHEM_ATOM_DEF_STEREO_COUNT>
4

> <PUBCHEM_ATOM_UDEF_STEREO_COUNT>
0

> <PUBCHEM_BOND_DEF_STEREO_COUNT>
0

> <PUBCHEM_BOND_UDEF_STEREO_COUNT>
0

> <PUBCHEM_ISOTOPIC_ATOM_COUNT>
0

> <PUBCHEM_COMPONENT_COUNT>
1

> <PUBCHEM_CACTVS_TAUTO_COUNT>
1

> <PUBCHEM_CONFORMER_ID>
0002CD8B00000001

> <PUBCHEM_MMFF94_ENERGY>
55.7278

> <PUBCHEM_FEATURE_SELFOVERLAP>
30.496

> <PUBCHEM_SHAPE_FINGERPRINT>
11206711 2 18413384341288658460
11315181 36 18187915197943512480
12423570 1 14598284168020711483
12491281 212 18056199076890476048
12592029 89 15865171513045491241
13024252 1 12396299283283201317
13027679 85 18050297160581422669
13140716 1 18123750026448659226
13380535 76 18192149304555928236
13764800 53 18340217301574634240
14614273 12 18263637373172333045
14817 1 17765483899302647053
15852999 172 18116995477131611448
15881359 60 18338251383432036913
16752209 62 18410003338985874678
16945 1 18337102462220763110
19010151 120 17916577790526915375
19765921 60 18044922486021133609
20510252 161 18272086115125430208
20511035 2 17836113089927609020
20525323 117 18411420583509225132
20602899 9 16629678423274682477
20671657 1 17767120900233135614
21501502 16 18267862775020027054
21524375 3 17907862803577876368
22344851 341 17973997354636642769
22907989 373 18187660144619410508
2306618 200 17561365058747631722
2334 1 17691683811199455654
23402539 116 18270661152102652830
23419403 2 17902791100537047707
23493267 7 18041007211140284050
23557571 272 17631995525157650600
23559900 14 18059285471398229308
2748010 2 18196387934924181926
3071541 236 18260545584923828696
353137 74 18265880398567954709
4340502 62 17606406454439390369
5845 1 11172206455435209133
81228 2 18342177782198853752

> <PUBCHEM_SHAPE_MULTIPOLES>
338.11
5.21
2.71
1.5
5.97
0.42
0.27
1.15
-1.36
-2.21
0.47
-0.54
-0.23
-0.01

> <PUBCHEM_SHAPE_SELFOVERLAP>
681.686

> <PUBCHEM_SHAPE_VOLUME>
197.4

> <PUBCHEM_COORDINATE_TYPE>
2
5
10

$$$$
