320054
  -OEChem-02172602343D

 39 41  0     1  0  0  0  0  0999 V2000
   -0.4110    0.5313    0.0259 O   0  0  0  0  0  0  0  0  0  0  0  0
   -1.9640   -3.2435    0.4377 O   0  0  0  0  0  0  0  0  0  0  0  0
   -4.3677   -2.2841    0.1532 O   0  0  0  0  0  0  0  0  0  0  0  0
   -4.7445    2.4243   -0.3191 O   0  0  0  0  0  0  0  0  0  0  0  0
    5.8602    0.5948    0.0378 O   0  0  0  0  0  0  0  0  0  0  0  0
    4.0473    1.7016    1.8299 O   0  0  0  0  0  0  0  0  0  0  0  0
    0.3429   -0.6208   -0.3827 C   0  0  2  0  0  0  0  0  0  0  0  0
   -0.0182   -1.8404    0.4630 C   0  0  0  0  0  0  0  0  0  0  0  0
    1.8169   -0.2940   -0.2677 C   0  0  0  0  0  0  0  0  0  0  0  0
   -2.3546   -0.9395    0.1029 C   0  0  0  0  0  0  0  0  0  0  0  0
   -1.4921   -2.1189    0.3209 C   0  0  0  0  0  0  0  0  0  0  0  0
   -1.7656    0.3233   -0.0097 C   0  0  0  0  0  0  0  0  0  0  0  0
   -3.7441   -1.0770    0.0540 C   0  0  0  0  0  0  0  0  0  0  0  0
    2.2639    0.5628    0.7376 C   0  0  0  0  0  0  0  0  0  0  0  0
    2.7260   -0.8496   -1.1674 C   0  0  0  0  0  0  0  0  0  0  0  0
   -2.5712    1.4556   -0.1368 C   0  0  0  0  0  0  0  0  0  0  0  0
   -3.9590    1.3207   -0.1838 C   0  0  0  0  0  0  0  0  0  0  0  0
   -4.5435    0.0569   -0.0940 C   0  0  0  0  0  0  0  0  0  0  0  0
    3.6218    0.8644    0.8433 C   0  0  0  0  0  0  0  0  0  0  0  0
    4.0837   -0.5481   -1.0617 C   0  0  0  0  0  0  0  0  0  0  0  0
    4.5316    0.3087   -0.0563 C   0  0  0  0  0  0  0  0  0  0  0  0
   -4.0828    3.6852   -0.4068 C   0  0  0  0  0  0  0  0  0  0  0  0
    6.7237   -0.0138   -0.9204 C   0  0  0  0  0  0  0  0  0  0  0  0
    0.1117   -0.8029   -1.4429 H   0  0  0  0  0  0  0  0  0  0  0  0
    0.1876   -1.6741    1.5269 H   0  0  0  0  0  0  0  0  0  0  0  0
    0.5419   -2.7201    0.1270 H   0  0  0  0  0  0  0  0  0  0  0  0
    1.5718    0.9950    1.4558 H   0  0  0  0  0  0  0  0  0  0  0  0
    2.3882   -1.5201   -1.9532 H   0  0  0  0  0  0  0  0  0  0  0  0
   -2.0614    2.4112   -0.2038 H   0  0  0  0  0  0  0  0  0  0  0  0
   -5.6259   -0.0417   -0.1319 H   0  0  0  0  0  0  0  0  0  0  0  0
    4.7322   -1.0161   -1.7942 H   0  0  0  0  0  0  0  0  0  0  0  0
   -3.7167   -3.0017    0.1814 H   0  0  0  0  0  0  0  0  0  0  0  0
    5.0126    1.7978    1.7539 H   0  0  0  0  0  0  0  0  0  0  0  0
   -3.5292    3.9142    0.5101 H   0  0  0  0  0  0  0  0  0  0  0  0
   -4.8589    4.4506   -0.5102 H   0  0  0  0  0  0  0  0  0  0  0  0
   -3.4520    3.7478   -1.3001 H   0  0  0  0  0  0  0  0  0  0  0  0
    6.4947    0.3185   -1.9386 H   0  0  0  0  0  0  0  0  0  0  0  0
    6.7235   -1.1053   -0.8280 H   0  0  0  0  0  0  0  0  0  0  0  0
    7.7412    0.3237   -0.6974 H   0  0  0  0  0  0  0  0  0  0  0  0
  1  7  1  0  0  0  0
  1 12  1  0  0  0  0
  2 11  2  0  0  0  0
  3 13  1  0  0  0  0
  3 32  1  0  0  0  0
  4 17  1  0  0  0  0
  4 22  1  0  0  0  0
  5 21  1  0  0  0  0
  5 23  1  0  0  0  0
  6 19  1  0  0  0  0
  6 33  1  0  0  0  0
  7  8  1  0  0  0  0
  7  9  1  0  0  0  0
  7 24  1  0  0  0  0
  8 11  1  0  0  0  0
  8 25  1  0  0  0  0
  8 26  1  0  0  0  0
  9 14  2  0  0  0  0
  9 15  1  0  0  0  0
 10 11  1  0  0  0  0
 10 12  1  0  0  0  0
 10 13  2  0  0  0  0
 12 16  2  0  0  0  0
 13 18  1  0  0  0  0
 14 19  1  0  0  0  0
 14 27  1  0  0  0  0
 15 20  2  0  0  0  0
 15 28  1  0  0  0  0
 16 17  1  0  0  0  0
 16 29  1  0  0  0  0
 17 18  2  0  0  0  0
 18 30  1  0  0  0  0
 19 21  2  0  0  0  0
 20 21  1  0  0  0  0
 20 31  1  0  0  0  0
 22 34  1  0  0  0  0
 22 35  1  0  0  0  0
 22 36  1  0  0  0  0
 23 37  1  0  0  0  0
 23 38  1  0  0  0  0
 23 39  1  0  0  0  0
M  END
> <PUBCHEM_COMPOUND_CID>
320054

> <PUBCHEM_CONFORMER_RMSD>
0.6

> <PUBCHEM_CONFORMER_DIVERSEORDER>
19
13
25
11
17
35
12
7
21
31
22
36
14
9
6
34
20
32
1
23
2
15
28
10
33
24
18
29
27
5
16
4
26
30
3
8

> <PUBCHEM_MMFF94_PARTIAL_CHARGES>
30
1 -0.36
10 0.09
11 0.42
12 0.08
13 0.08
14 -0.15
15 -0.15
16 -0.15
17 0.08
18 -0.15
19 0.08
2 -0.57
20 -0.15
21 0.08
22 0.28
23 0.28
27 0.15
28 0.15
29 0.15
3 -0.53
30 0.15
31 0.15
32 0.45
33 0.45
4 -0.36
5 -0.36
6 -0.53
7 0.42
8 0.06
9 -0.14

> <PUBCHEM_EFFECTIVE_ROTOR_COUNT>
3.6

> <PUBCHEM_PHARMACOPHORE_FEATURES>
9
1 1 acceptor
1 2 acceptor
1 3 donor
1 4 acceptor
1 5 acceptor
1 6 donor
6 1 7 8 10 11 12 rings
6 10 12 13 16 17 18 rings
6 9 14 15 19 20 21 rings

> <PUBCHEM_HEAVY_ATOM_COUNT>
23

> <PUBCHEM_ATOM_DEF_STEREO_COUNT>
0

> <PUBCHEM_ATOM_UDEF_STEREO_COUNT>
1

> <PUBCHEM_BOND_DEF_STEREO_COUNT>
0

> <PUBCHEM_BOND_UDEF_STEREO_COUNT>
0

> <PUBCHEM_ISOTOPIC_ATOM_COUNT>
0

> <PUBCHEM_COMPONENT_COUNT>
1

> <PUBCHEM_CACTVS_TAUTO_COUNT>
25

> <PUBCHEM_CONFORMER_ID>
0004E23600000013

> <PUBCHEM_MMFF94_ENERGY>
85.1251

> <PUBCHEM_FEATURE_SELFOVERLAP>
45.702

> <PUBCHEM_SHAPE_FINGERPRINT>
10319926 262 18339345440841594530
10411042 1 17904206172198129051
10498660 4 18339075991298941561
10646746 165 18410572885718970630
11315181 36 17822013155077444614
11796584 16 18409453562462788158
12107183 9 17972306314396156722
12173636 292 18409162182810945199
12236239 1 17167859794616976046
12390115 104 18341059506291562721
12403259 415 18273494598121017472
12596602 18 16660934377698654712
12788726 201 16954811953013944034
13140716 1 17900831749415724819
13402501 40 18272930531502745664
13583140 156 17989205958053722710
14508225 48 18124866022788950863
15042514 8 18119253007128599691
15196674 1 18409449146170550670
15961568 22 18046059630247998156
16988056 13 15304183887085350165
17844677 252 18337116764805009848
18186145 218 18201444640423977083
19489759 90 18409167726980695303
200 152 16056886823067624378
20510252 161 18342176683124764347
20645477 56 18412267229090365035
20645477 70 17131562660968582070
21033648 29 18059563716026816352
21065198 57 18339922714289368666
21065201 7 18409166623390482098
21267235 1 18263370351072062811
21279426 13 18269843008483866286
21792961 116 18059309712504637918
22122407 14 15357701868600733309
23402539 116 18410290324215852222
23557571 272 18341056293297030332
23559900 14 18341897364258682750
283562 15 18409729569814009091
3545911 37 18343023280696554349
4028521 119 18272369741801517769
4214541 1 18410857676600311916
495365 180 17561068199446129450
508706 21 18411409640054147113
5104073 3 18336547122981299379
5265222 85 18265347273585277590
5283173 99 18412825776575960816
542803 24 17240202153602781342
59755656 520 18334009458649871911
6327066 14 18042962065743183013
7808743 9 18334576789570454045
9709674 26 18270963560650003382
9981440 41 18188212009868889299

> <PUBCHEM_SHAPE_MULTIPOLES>
438.11
13.04
2.85
0.97
12.37
0.53
0.12
5.38
-1.72
-5.27
0.21
1.19
0.18
1.5

> <PUBCHEM_SHAPE_SELFOVERLAP>
960.998

> <PUBCHEM_SHAPE_VOLUME>
236.8

> <PUBCHEM_COORDINATE_TYPE>
2
5
10

$$$$
