12337624
  -OEChem-02172602593D

 33 33  0     1  0  0  0  0  0999 V2000
   -2.2624    0.6294    0.3024 O   0  0  0  0  0  0  0  0  0  0  0  0
   -1.2480    0.2190   -1.7281 O   0  0  0  0  0  0  0  0  0  0  0  0
   -0.2310   -2.1420   -0.0132 C   0  0  0  0  0  0  0  0  0  0  0  0
   -0.2567   -0.6254    0.3332 C   0  0  1  0  0  0  0  0  0  0  0  0
    1.0830    0.0767    0.1836 C   0  0  0  0  0  0  0  0  0  0  0  0
    0.7454   -2.9148    0.8843 C   0  0  0  0  0  0  0  0  0  0  0  0
   -1.6261   -2.7681    0.1327 C   0  0  0  0  0  0  0  0  0  0  0  0
   -1.2957    0.1083   -0.5093 C   0  0  0  0  0  0  0  0  0  0  0  0
    1.9382   -0.3214   -0.8250 C   0  0  0  0  0  0  0  0  0  0  0  0
    1.4075    1.0928    1.0605 C   0  0  0  0  0  0  0  0  0  0  0  0
    3.1679    0.3227   -0.9621 C   0  0  0  0  0  0  0  0  0  0  0  0
    2.6371    1.7370    0.9234 C   0  0  0  0  0  0  0  0  0  0  0  0
    3.5173    1.3518   -0.0878 C   0  0  0  0  0  0  0  0  0  0  0  0
   -3.2953    1.3631   -0.3626 C   0  0  0  0  0  0  0  0  0  0  0  0
   -4.2812    1.8710    0.6679 C   0  0  0  0  0  0  0  0  0  0  0  0
   -0.5583   -0.5483    1.3885 H   0  0  0  0  0  0  0  0  0  0  0  0
    0.0568   -2.2988   -1.0591 H   0  0  0  0  0  0  0  0  0  0  0  0
    0.7159   -3.9856    0.6538 H   0  0  0  0  0  0  0  0  0  0  0  0
    0.4871   -2.7941    1.9421 H   0  0  0  0  0  0  0  0  0  0  0  0
    1.7801   -2.5883    0.7507 H   0  0  0  0  0  0  0  0  0  0  0  0
   -2.3386   -2.3320   -0.5746 H   0  0  0  0  0  0  0  0  0  0  0  0
   -1.5919   -3.8446   -0.0681 H   0  0  0  0  0  0  0  0  0  0  0  0
   -2.0199   -2.6267    1.1450 H   0  0  0  0  0  0  0  0  0  0  0  0
    1.6937   -1.0977   -1.5402 H   0  0  0  0  0  0  0  0  0  0  0  0
    0.7277    1.4010    1.8493 H   0  0  0  0  0  0  0  0  0  0  0  0
    3.8511    0.0274   -1.7531 H   0  0  0  0  0  0  0  0  0  0  0  0
    2.9088    2.5390    1.6035 H   0  0  0  0  0  0  0  0  0  0  0  0
    4.4740    1.8544   -0.1954 H   0  0  0  0  0  0  0  0  0  0  0  0
   -2.8536    2.2092   -0.9008 H   0  0  0  0  0  0  0  0  0  0  0  0
   -3.8088    0.7070   -1.0742 H   0  0  0  0  0  0  0  0  0  0  0  0
   -5.0866    2.4379    0.1927 H   0  0  0  0  0  0  0  0  0  0  0  0
   -4.7179    1.0369    1.2270 H   0  0  0  0  0  0  0  0  0  0  0  0
   -3.7786    2.5142    1.3977 H   0  0  0  0  0  0  0  0  0  0  0  0
  1  8  1  0  0  0  0
  1 14  1  0  0  0  0
  2  8  2  0  0  0  0
  3  4  1  0  0  0  0
  3  6  1  0  0  0  0
  3  7  1  0  0  0  0
  3 17  1  0  0  0  0
  4  5  1  0  0  0  0
  4  8  1  0  0  0  0
  4 16  1  0  0  0  0
  5  9  2  0  0  0  0
  5 10  1  0  0  0  0
  6 18  1  0  0  0  0
  6 19  1  0  0  0  0
  6 20  1  0  0  0  0
  7 21  1  0  0  0  0
  7 22  1  0  0  0  0
  7 23  1  0  0  0  0
  9 11  1  0  0  0  0
  9 24  1  0  0  0  0
 10 12  2  0  0  0  0
 10 25  1  0  0  0  0
 11 13  2  0  0  0  0
 11 26  1  0  0  0  0
 12 13  1  0  0  0  0
 12 27  1  0  0  0  0
 13 28  1  0  0  0  0
 14 15  1  0  0  0  0
 14 29  1  0  0  0  0
 14 30  1  0  0  0  0
 15 31  1  0  0  0  0
 15 32  1  0  0  0  0
 15 33  1  0  0  0  0
M  END
> <PUBCHEM_COMPOUND_CID>
12337624

> <PUBCHEM_CONFORMER_RMSD>
0.6

> <PUBCHEM_CONFORMER_DIVERSEORDER>
1
53
16
32
34
13
57
2
41
28
27
47
24
30
43
14
26
15
42
29
45
44
36
22
35
59
3
52
54
61
40
12
21
58
46
17
55
49
4
56
7
48
8
51
33
11
60
6
9
18
10
31
20
19
23
39
25
37
38
50
5

> <PUBCHEM_MMFF94_PARTIAL_CHARGES>
16
1 -0.43
10 -0.15
11 -0.15
12 -0.15
13 -0.15
14 0.28
2 -0.57
24 0.15
25 0.15
26 0.15
27 0.15
28 0.15
4 0.2
5 -0.14
8 0.66
9 -0.15

> <PUBCHEM_EFFECTIVE_ROTOR_COUNT>
5

> <PUBCHEM_PHARMACOPHORE_FEATURES>
3
1 2 acceptor
3 3 6 7 hydrophobe
6 5 9 10 11 12 13 rings

> <PUBCHEM_HEAVY_ATOM_COUNT>
15

> <PUBCHEM_ATOM_DEF_STEREO_COUNT>
0

> <PUBCHEM_ATOM_UDEF_STEREO_COUNT>
1

> <PUBCHEM_BOND_DEF_STEREO_COUNT>
0

> <PUBCHEM_BOND_UDEF_STEREO_COUNT>
0

> <PUBCHEM_ISOTOPIC_ATOM_COUNT>
0

> <PUBCHEM_COMPONENT_COUNT>
1

> <PUBCHEM_CACTVS_TAUTO_COUNT>
1

> <PUBCHEM_CONFORMER_ID>
00BC41D800000001

> <PUBCHEM_MMFF94_ENERGY>
32.2814

> <PUBCHEM_FEATURE_SELFOVERLAP>
15.223

> <PUBCHEM_SHAPE_FINGERPRINT>
1 1 18262233296697075182
10608611 8 18127973220535821056
10922049 32 18341622503272949967
12173636 292 18266177412298726277
12423570 1 13449506417490435982
12532896 13 18410011065268348539
12716301 132 18267294512107606666
12730499 353 18265625299434152577
13294875 104 18270385110565481370
13764800 53 18336830891581126913
14123255 52 18410572860213385185
15309172 13 18187080654889233077
15490181 7 18410292518955027539
15775835 57 18335137583360154160
16945 1 18118102702874169846
17844478 74 17910399725043153506
18186145 218 18341612585798227620
19049666 15 18271248347589681802
201361 129 18124604076474549329
20361792 2 10015580661773417525
20510252 161 18123187076294680459
20600515 1 17035818557920270427
20671657 1 18339072666872740339
20711985 344 17975410527489149594
21041028 32 17618498783650647490
21501502 16 18336818784174152130
21524375 3 18341325626327238231
21930827 45 18337668736642317258
22802520 49 18130795619687011440
23402539 116 17905591547715301726
23419403 2 17405487256613242039
23557571 272 17687462781929181484
23558518 356 18193554699369783343
23559900 14 18343305869288178132
25 1 18272374139726742100
2748010 2 17844535624438983752
276578 36 18334859372521574353
305870 269 18336817594119713721
458136 41 18262811652940598435
633830 44 18201158759022324069
6442390 28 18337121141392431019
7364860 26 18122623851468795507
81228 2 17900819662786806019
8272917 22 18052825741510751161

> <PUBCHEM_SHAPE_MULTIPOLES>
296.95
5.81
2.9
1.13
2.56
2.47
-0.17
-5.34
0
1.16
0.91
-0.21
-0.13
0.05

> <PUBCHEM_SHAPE_SELFOVERLAP>
599.395

> <PUBCHEM_SHAPE_VOLUME>
174.4

> <PUBCHEM_COORDINATE_TYPE>
2
5
10

$$$$
