91752248
  -OEChem-02172602303D

 39 42  0     1  0  0  0  0  0999 V2000
    3.1364    1.9403    0.5761 O   0  0  0  0  0  0  0  0  0  0  0  0
    0.1171   -0.5884   -0.8042 O   0  0  0  0  0  0  0  0  0  0  0  0
   -1.1502    0.7947    0.5382 O   0  0  0  0  0  0  0  0  0  0  0  0
    3.9441   -1.0347   -0.1128 N   0  0  0  0  0  0  0  0  0  0  0  0
    4.1539    1.3007   -0.1883 C   0  0  1  0  0  0  0  0  0  0  0  0
    3.8576    0.8943    1.2198 C   0  0  2  0  0  0  0  0  0  0  0  0
    3.7998    0.1102   -1.0441 C   0  0  2  0  0  0  0  0  0  0  0  0
    3.3402   -0.5203    1.1399 C   0  0  1  0  0  0  0  0  0  0  0  0
    2.3321    0.0817   -1.5069 C   0  0  0  0  0  0  0  0  0  0  0  0
    1.8182   -0.6232    0.9352 C   0  0  0  0  0  0  0  0  0  0  0  0
    1.3060    0.0577   -0.3534 C   0  0  0  0  0  0  0  0  0  0  0  0
    5.3369   -1.4453    0.0618 C   0  0  0  0  0  0  0  0  0  0  0  0
   -1.0528   -0.1163   -0.2729 C   0  0  0  0  0  0  0  0  0  0  0  0
   -2.2063   -0.9026   -0.8489 C   0  0  0  0  0  0  0  0  0  0  0  0
   -3.5474   -0.4295   -0.3508 C   0  0  0  0  0  0  0  0  0  0  0  0
   -4.0996   -0.9872    0.8023 C   0  0  0  0  0  0  0  0  0  0  0  0
   -4.2365    0.5662   -1.0430 C   0  0  0  0  0  0  0  0  0  0  0  0
   -5.3413   -0.5491    1.2632 C   0  0  0  0  0  0  0  0  0  0  0  0
   -5.4780    1.0042   -0.5822 C   0  0  0  0  0  0  0  0  0  0  0  0
   -6.0305    0.4465    0.5709 C   0  0  0  0  0  0  0  0  0  0  0  0
    5.0822    1.8024   -0.4110 H   0  0  0  0  0  0  0  0  0  0  0  0
    4.5757    1.1077    1.9954 H   0  0  0  0  0  0  0  0  0  0  0  0
    4.4630    0.0244   -1.9120 H   0  0  0  0  0  0  0  0  0  0  0  0
    3.6364   -1.1092    2.0151 H   0  0  0  0  0  0  0  0  0  0  0  0
    2.1243    0.9485   -2.1472 H   0  0  0  0  0  0  0  0  0  0  0  0
    2.1770   -0.8001   -2.1439 H   0  0  0  0  0  0  0  0  0  0  0  0
    1.5314   -1.6837    0.9191 H   0  0  0  0  0  0  0  0  0  0  0  0
    1.2973   -0.1879    1.7973 H   0  0  0  0  0  0  0  0  0  0  0  0
    1.0726    1.1053   -0.1283 H   0  0  0  0  0  0  0  0  0  0  0  0
    5.3954   -2.2830    0.7654 H   0  0  0  0  0  0  0  0  0  0  0  0
    5.9899   -0.6465    0.4298 H   0  0  0  0  0  0  0  0  0  0  0  0
    5.7437   -1.8053   -0.8895 H   0  0  0  0  0  0  0  0  0  0  0  0
   -2.1734   -0.8219   -1.9421 H   0  0  0  0  0  0  0  0  0  0  0  0
   -2.0707   -1.9598   -0.5913 H   0  0  0  0  0  0  0  0  0  0  0  0
   -3.5714   -1.7621    1.3515 H   0  0  0  0  0  0  0  0  0  0  0  0
   -3.8158    1.0099   -1.9414 H   0  0  0  0  0  0  0  0  0  0  0  0
   -5.7711   -0.9829    2.1614 H   0  0  0  0  0  0  0  0  0  0  0  0
   -6.0145    1.7799   -1.1208 H   0  0  0  0  0  0  0  0  0  0  0  0
   -6.9970    0.7878    0.9298 H   0  0  0  0  0  0  0  0  0  0  0  0
  1  5  1  0  0  0  0
  1  6  1  0  0  0  0
  2 11  1  0  0  0  0
  2 13  1  0  0  0  0
  3 13  2  0  0  0  0
  4  7  1  0  0  0  0
  4  8  1  0  0  0  0
  4 12  1  0  0  0  0
  5  6  1  0  0  0  0
  5  7  1  0  0  0  0
  5 21  1  0  0  0  0
  6  8  1  0  0  0  0
  6 22  1  0  0  0  0
  7  9  1  0  0  0  0
  7 23  1  0  0  0  0
  8 10  1  0  0  0  0
  8 24  1  0  0  0  0
  9 11  1  0  0  0  0
  9 25  1  0  0  0  0
  9 26  1  0  0  0  0
 10 11  1  0  0  0  0
 10 27  1  0  0  0  0
 10 28  1  0  0  0  0
 11 29  1  0  0  0  0
 12 30  1  0  0  0  0
 12 31  1  0  0  0  0
 12 32  1  0  0  0  0
 13 14  1  0  0  0  0
 14 15  1  0  0  0  0
 14 33  1  0  0  0  0
 14 34  1  0  0  0  0
 15 16  2  0  0  0  0
 15 17  1  0  0  0  0
 16 18  1  0  0  0  0
 16 35  1  0  0  0  0
 17 19  2  0  0  0  0
 17 36  1  0  0  0  0
 18 20  2  0  0  0  0
 18 37  1  0  0  0  0
 19 20  1  0  0  0  0
 19 38  1  0  0  0  0
 20 39  1  0  0  0  0
M  END
> <PUBCHEM_COMPOUND_CID>
91752248

> <PUBCHEM_CONFORMER_RMSD>
0.8

> <PUBCHEM_CONFORMER_DIVERSEORDER>
1
42
37
30
23
13
25
26
21
60
40
59
56
2
3
63
46
53
27
16
50
38
14
65
9
29
64
61
51
31
57
44
11
49
10
43
58
39
12
7
62
17
32
8
19
41
28
18
15
35
5
48
54
4
47
6
24
55
36
45
22
20
34
33
52

> <PUBCHEM_MMFF94_PARTIAL_CHARGES>
25
1 -0.3
11 0.28
12 0.27
13 0.66
14 0.2
15 -0.14
16 -0.15
17 -0.15
18 -0.15
19 -0.15
2 -0.43
20 -0.15
21 0.1
22 0.1
3 -0.57
35 0.15
36 0.15
37 0.15
38 0.15
39 0.15
4 -0.81
5 -0.05
6 -0.05
7 0.37
8 0.37

> <PUBCHEM_EFFECTIVE_ROTOR_COUNT>
5

> <PUBCHEM_PHARMACOPHORE_FEATURES>
6
1 1 acceptor
1 3 acceptor
1 4 cation
6 1 4 5 6 7 8 rings
6 15 16 17 18 19 20 rings
8 4 5 6 7 8 9 10 11 rings

> <PUBCHEM_HEAVY_ATOM_COUNT>
20

> <PUBCHEM_ATOM_DEF_STEREO_COUNT>
2

> <PUBCHEM_ATOM_UDEF_STEREO_COUNT>
2

> <PUBCHEM_BOND_DEF_STEREO_COUNT>
0

> <PUBCHEM_BOND_UDEF_STEREO_COUNT>
0

> <PUBCHEM_ISOTOPIC_ATOM_COUNT>
0

> <PUBCHEM_COMPONENT_COUNT>
1

> <PUBCHEM_CACTVS_TAUTO_COUNT>
1

> <PUBCHEM_CONFORMER_ID>
0578073800000001

> <PUBCHEM_MMFF94_ENERGY>
58.5435

> <PUBCHEM_FEATURE_SELFOVERLAP>
35.787

> <PUBCHEM_SHAPE_FINGERPRINT>
10366900 7 13912327875665114916
10447042 23 7925916963044681992
11089746 13 15626218009455688011
11405975 8 18131630114373388166
12107183 9 16447823503935800953
12236239 1 18040720259547469143
12596602 18 18408890663547081073
12616971 3 18060413625334545661
13073987 5 11674871182753488567
13167823 11 16805325509165542963
13533116 47 18336828593663243570
13675066 3 18259702311393046151
14123238 8 14056721244757203551
14251718 22 10591754390192073607
14341114 176 18040721367976234973
14528608 73 14764343855797991437
15183329 4 14045748110533469427
15348495 7 18334577992398050507
15788980 27 18410571790755582887
17844677 252 18259708891293726989
19433438 28 18187081745900506085
20645477 70 11025787679109639864
21033648 29 18337654374414701865
212847 35 17203609298228166410
22224240 67 8646478597731956366
23402539 116 14620790479630406411
23402655 69 15410894084725576628
23559900 14 18186241731917565790
239999 70 17530969077305005602
29717793 49 10447937165319410001
300161 21 17203322342583029064
351380 3 14707208820692566907
4214541 1 17095522877502038509
465052 167 15140680272005385578
5104073 3 17917424384231454851
5374978 207 18272931622244720496
54040823 5 12396299249413976110
542803 24 18040999548533441207
5924683 9 18189054364825575507
633830 44 18342167899415854366
90127 26 18408323293798147881
960060 61 14908188576814037224

> <PUBCHEM_SHAPE_MULTIPOLES>
389
14.59
1.33
1.26
11.24
0.07
0.17
0.85
1.87
-0.08
0.07
-0.95
-0.13
0.57

> <PUBCHEM_SHAPE_SELFOVERLAP>
841.099

> <PUBCHEM_SHAPE_VOLUME>
215.5

> <PUBCHEM_COORDINATE_TYPE>
2
5
10

$$$$
