12304107
  -OEChem-02172602433D

 37 38  0     1  0  0  0  0  0999 V2000
   -2.4356   -1.3272    0.2509 O   0  0  0  0  0  0  0  0  0  0  0  0
   -4.0580   -0.3066   -1.0193 O   0  0  0  0  0  0  0  0  0  0  0  0
   -1.2434    0.5689    1.0245 C   0  0  1  0  0  0  0  0  0  0  0  0
   -1.1584   -0.9534    0.8185 C   0  0  2  0  0  0  0  0  0  0  0  0
    0.0932    1.3395    1.0776 C   0  0  0  0  0  0  0  0  0  0  0  0
   -2.2643    0.9448    0.0059 C   0  0  0  0  0  0  0  0  0  0  0  0
    0.8134    1.5990   -0.2642 C   0  0  0  0  0  0  0  0  0  0  0  0
   -0.0748   -1.4222   -0.1097 C   0  0  0  0  0  0  0  0  0  0  0  0
    2.3170    1.4178   -0.1653 C   0  0  0  0  0  0  0  0  0  0  0  0
    1.1606   -1.8439    0.2239 C   0  0  0  0  0  0  0  0  0  0  0  0
   -3.0452   -0.2601   -0.3447 C   0  0  0  0  0  0  0  0  0  0  0  0
    2.2097   -2.0032   -0.8593 C   0  0  0  0  0  0  0  0  0  0  0  0
    2.5013   -0.6948   -1.6185 C   0  0  0  0  0  0  0  0  0  0  0  0
    3.0168    0.4174   -0.7411 C   0  0  0  0  0  0  0  0  0  0  0  0
   -2.5154    2.1281   -0.5591 C   0  0  0  0  0  0  0  0  0  0  0  0
    3.0322    2.4627    0.6532 C   0  0  0  0  0  0  0  0  0  0  0  0
    1.6509   -2.0668    1.6267 C   0  0  0  0  0  0  0  0  0  0  0  0
   -1.7256    0.7193    2.0027 H   0  0  0  0  0  0  0  0  0  0  0  0
   -1.0944   -1.4576    1.7874 H   0  0  0  0  0  0  0  0  0  0  0  0
    0.7546    0.8190    1.7818 H   0  0  0  0  0  0  0  0  0  0  0  0
   -0.1017    2.3192    1.5362 H   0  0  0  0  0  0  0  0  0  0  0  0
    0.6156    2.6327   -0.5782 H   0  0  0  0  0  0  0  0  0  0  0  0
    0.3953    0.9891   -1.0667 H   0  0  0  0  0  0  0  0  0  0  0  0
   -0.2975   -1.2994   -1.1695 H   0  0  0  0  0  0  0  0  0  0  0  0
    3.1440   -2.3812   -0.4245 H   0  0  0  0  0  0  0  0  0  0  0  0
    1.8777   -2.7700   -1.5708 H   0  0  0  0  0  0  0  0  0  0  0  0
    1.6239   -0.3730   -2.1891 H   0  0  0  0  0  0  0  0  0  0  0  0
    3.2673   -0.9008   -2.3775 H   0  0  0  0  0  0  0  0  0  0  0  0
    4.0932    0.3856   -0.5766 H   0  0  0  0  0  0  0  0  0  0  0  0
   -1.9432    3.0090   -0.2893 H   0  0  0  0  0  0  0  0  0  0  0  0
   -3.2995    2.2541   -1.2982 H   0  0  0  0  0  0  0  0  0  0  0  0
    2.6856    2.4446    1.6912 H   0  0  0  0  0  0  0  0  0  0  0  0
    2.8442    3.4594    0.2410 H   0  0  0  0  0  0  0  0  0  0  0  0
    4.1169    2.3114    0.6656 H   0  0  0  0  0  0  0  0  0  0  0  0
    0.8929   -1.8779    2.3896 H   0  0  0  0  0  0  0  0  0  0  0  0
    2.4990   -1.4085    1.8421 H   0  0  0  0  0  0  0  0  0  0  0  0
    1.9820   -3.1040    1.7445 H   0  0  0  0  0  0  0  0  0  0  0  0
  1  4  1  0  0  0  0
  1 11  1  0  0  0  0
  2 11  2  0  0  0  0
  3  4  1  0  0  0  0
  3  5  1  0  0  0  0
  3  6  1  0  0  0  0
  3 18  1  0  0  0  0
  4  8  1  0  0  0  0
  4 19  1  0  0  0  0
  5  7  1  0  0  0  0
  5 20  1  0  0  0  0
  5 21  1  0  0  0  0
  6 11  1  0  0  0  0
  6 15  2  0  0  0  0
  7  9  1  0  0  0  0
  7 22  1  0  0  0  0
  7 23  1  0  0  0  0
  8 10  2  0  0  0  0
  8 24  1  0  0  0  0
  9 14  2  0  0  0  0
  9 16  1  0  0  0  0
 10 12  1  0  0  0  0
 10 17  1  0  0  0  0
 12 13  1  0  0  0  0
 12 25  1  0  0  0  0
 12 26  1  0  0  0  0
 13 14  1  0  0  0  0
 13 27  1  0  0  0  0
 13 28  1  0  0  0  0
 14 29  1  0  0  0  0
 15 30  1  0  0  0  0
 15 31  1  0  0  0  0
 16 32  1  0  0  0  0
 16 33  1  0  0  0  0
 16 34  1  0  0  0  0
 17 35  1  0  0  0  0
 17 36  1  0  0  0  0
 17 37  1  0  0  0  0
M  END
> <PUBCHEM_COMPOUND_CID>
12304107

> <PUBCHEM_CONFORMER_RMSD>
0.6

> <PUBCHEM_CONFORMER_DIVERSEORDER>
2
5
4
1
6
3

> <PUBCHEM_MMFF94_PARTIAL_CHARGES>
20
1 -0.43
10 -0.28
11 0.71
12 0.14
13 0.14
14 -0.29
15 -0.3
16 0.14
17 0.14
2 -0.57
24 0.15
29 0.15
3 0.14
30 0.15
31 0.15
4 0.42
6 -0.12
7 0.14
8 -0.29
9 -0.28

> <PUBCHEM_EFFECTIVE_ROTOR_COUNT>
1

> <PUBCHEM_PHARMACOPHORE_FEATURES>
2
1 2 acceptor
5 1 3 4 6 11 rings

> <PUBCHEM_HEAVY_ATOM_COUNT>
17

> <PUBCHEM_ATOM_DEF_STEREO_COUNT>
2

> <PUBCHEM_ATOM_UDEF_STEREO_COUNT>
0

> <PUBCHEM_BOND_DEF_STEREO_COUNT>
2

> <PUBCHEM_BOND_UDEF_STEREO_COUNT>
0

> <PUBCHEM_ISOTOPIC_ATOM_COUNT>
0

> <PUBCHEM_COMPONENT_COUNT>
1

> <PUBCHEM_CACTVS_TAUTO_COUNT>
1

> <PUBCHEM_CONFORMER_ID>
00BBBEEB00000002

> <PUBCHEM_MMFF94_ENERGY>
36.8889

> <PUBCHEM_FEATURE_SELFOVERLAP>
10.148

> <PUBCHEM_SHAPE_FINGERPRINT>
13897977 150 18411705421392594105
14181834 199 18262509300064519386
14250199 8 18200889425590604822
14251745 187 18268706293342859369
14817 1 11627775054251494426
15775835 57 18189633656274249260
15852999 172 18195809798151109128
16945 1 18334584572050635843
18186145 218 18339091461470143045
18981168 100 14852455303191196981
20201158 50 18342184396490440748
20600515 1 17621857817633198672
20645476 183 17315922345300295072
20645477 70 18202562891168301509
20691752 17 17676767565953390325
20905425 154 18411698777030591076
21501502 16 18336540509053286153
21524375 3 18268146646746608040
21947302 44 18260545623594260950
22112679 90 17835251043105663186
22802520 49 18408613560525525081
2334 1 18409451349641488105
23557571 272 17631434697060713003
238 59 18198322126101250693
257057 1 17758102714452266002
2748010 2 17763476405538871106
2803657 2 17762915264057078640
2871803 45 18411981398916700205
3323516 105 18412547626156963005
353137 74 18411422855546840497
5262128 65 17773616939468153548
58051976 378 18339920544962164820
63268167 104 18265915578602916882
7364860 26 18342454820616486570
7832392 63 17841737122184907640
81228 2 17042604786800029538

> <PUBCHEM_SHAPE_MULTIPOLES>
338.11
5.42
2.72
1.29
2.53
0.36
-0.08
0.88
1.72
-1.57
-0.44
-0.49
-0.32
0.35

> <PUBCHEM_SHAPE_SELFOVERLAP>
695.121

> <PUBCHEM_SHAPE_VOLUME>
194.5

> <PUBCHEM_COORDINATE_TYPE>
2
5
10

$$$$
