45933907
  -OEChem-02172602263D

 55 57  0     1  0  0  0  0  0999 V2000
   -1.3236   -1.1292    0.3312 O   0  0  0  0  0  0  0  0  0  0  0  0
   -2.2700    0.3529   -1.2218 O   0  0  0  0  0  0  0  0  0  0  0  0
   -3.9249   -3.5416   -0.3165 O   0  0  0  0  0  0  0  0  0  0  0  0
   -1.7233   -4.7414    0.8758 O   0  0  0  0  0  0  0  0  0  0  0  0
   -1.3918   -1.9722   -2.4189 O   0  0  0  0  0  0  0  0  0  0  0  0
   -0.2702   -1.2878    2.8653 O   0  0  0  0  0  0  0  0  0  0  0  0
    0.1676    4.2169    0.2658 O   0  0  0  0  0  0  0  0  0  0  0  0
   -0.1171    1.8585   -2.6266 O   0  0  0  0  0  0  0  0  0  0  0  0
   -4.1406    3.2632    2.0605 O   0  0  0  0  0  0  0  0  0  0  0  0
    7.1174   -0.6439    1.0733 O   0  0  0  0  0  0  0  0  0  0  0  0
   -2.6388   -3.3808   -0.9131 C   0  0  2  0  0  0  0  0  0  0  0  0
   -1.5281   -3.5434    0.1348 C   0  0  1  0  0  0  0  0  0  0  0  0
   -2.5496   -2.0075   -1.5825 C   0  0  1  0  0  0  0  0  0  0  0  0
   -1.4654   -2.3392    1.0836 C   0  0  1  0  0  0  0  0  0  0  0  0
   -2.4298   -0.8887   -0.5398 C   0  0  1  0  0  0  0  0  0  0  0  0
   -0.2720   -2.4312    2.0301 C   0  0  0  0  0  0  0  0  0  0  0  0
   -2.1610    1.4729   -0.4418 C   0  0  0  0  0  0  0  0  0  0  0  0
   -1.0240    2.2789   -0.4982 C   0  0  0  0  0  0  0  0  0  0  0  0
   -3.2082    1.8034    0.4183 C   0  0  0  0  0  0  0  0  0  0  0  0
    0.0711    1.9330   -1.3974 C   0  0  0  0  0  0  0  0  0  0  0  0
   -0.9340    3.4153    0.3055 C   0  0  0  0  0  0  0  0  0  0  0  0
    1.4721    1.6577   -0.8257 C   0  0  0  0  0  0  0  0  0  0  0  0
   -3.1183    2.9400    1.2221 C   0  0  0  0  0  0  0  0  0  0  0  0
    1.9736    0.2403   -1.1107 C   0  0  0  0  0  0  0  0  0  0  0  0
   -1.9811    3.7459    1.1657 C   0  0  0  0  0  0  0  0  0  0  0  0
    3.3435    0.0063   -0.5281 C   0  0  0  0  0  0  0  0  0  0  0  0
    4.4805    0.2810   -1.2881 C   0  0  0  0  0  0  0  0  0  0  0  0
    3.4747   -0.4869    0.7701 C   0  0  0  0  0  0  0  0  0  0  0  0
    5.7486    0.0628   -0.7497 C   0  0  0  0  0  0  0  0  0  0  0  0
    4.7429   -0.7052    1.3084 C   0  0  0  0  0  0  0  0  0  0  0  0
    5.8797   -0.4304    0.5485 C   0  0  0  0  0  0  0  0  0  0  0  0
   -2.5354   -4.1819   -1.6548 H   0  0  0  0  0  0  0  0  0  0  0  0
   -0.5680   -3.6271   -0.3909 H   0  0  0  0  0  0  0  0  0  0  0  0
   -3.4200   -1.8151   -2.2203 H   0  0  0  0  0  0  0  0  0  0  0  0
   -2.3774   -2.2682    1.6912 H   0  0  0  0  0  0  0  0  0  0  0  0
   -3.3532   -0.8654    0.0527 H   0  0  0  0  0  0  0  0  0  0  0  0
   -0.3259   -3.3251    2.6586 H   0  0  0  0  0  0  0  0  0  0  0  0
    0.6691   -2.4382    1.4705 H   0  0  0  0  0  0  0  0  0  0  0  0
   -4.5884   -3.4477   -1.0211 H   0  0  0  0  0  0  0  0  0  0  0  0
   -1.7569   -5.4768    0.2405 H   0  0  0  0  0  0  0  0  0  0  0  0
   -1.4945   -2.6688   -3.0895 H   0  0  0  0  0  0  0  0  0  0  0  0
    0.5049   -1.3593    3.4481 H   0  0  0  0  0  0  0  0  0  0  0  0
   -4.1090    1.1969    0.4595 H   0  0  0  0  0  0  0  0  0  0  0  0
    1.4566    1.8230    0.2584 H   0  0  0  0  0  0  0  0  0  0  0  0
    2.1502    2.4095   -1.2477 H   0  0  0  0  0  0  0  0  0  0  0  0
    1.9943    0.0579   -2.1928 H   0  0  0  0  0  0  0  0  0  0  0  0
    1.2668   -0.4959   -0.7075 H   0  0  0  0  0  0  0  0  0  0  0  0
   -1.9126    4.6316    1.7928 H   0  0  0  0  0  0  0  0  0  0  0  0
    4.3909    0.6668   -2.3001 H   0  0  0  0  0  0  0  0  0  0  0  0
    2.5965   -0.7010    1.3729 H   0  0  0  0  0  0  0  0  0  0  0  0
    0.0495    4.9522    0.8913 H   0  0  0  0  0  0  0  0  0  0  0  0
   -3.9104    4.0777    2.5397 H   0  0  0  0  0  0  0  0  0  0  0  0
    6.6306    0.2790   -1.3463 H   0  0  0  0  0  0  0  0  0  0  0  0
    4.8314   -1.0889    2.3212 H   0  0  0  0  0  0  0  0  0  0  0  0
    7.0209   -0.9860    1.9787 H   0  0  0  0  0  0  0  0  0  0  0  0
  1 14  1  0  0  0  0
  1 15  1  0  0  0  0
  2 15  1  0  0  0  0
  2 17  1  0  0  0  0
  3 11  1  0  0  0  0
  3 39  1  0  0  0  0
  4 12  1  0  0  0  0
  4 40  1  0  0  0  0
  5 13  1  0  0  0  0
  5 41  1  0  0  0  0
  6 16  1  0  0  0  0
  6 42  1  0  0  0  0
  7 21  1  0  0  0  0
  7 51  1  0  0  0  0
  8 20  2  0  0  0  0
  9 23  1  0  0  0  0
  9 52  1  0  0  0  0
 10 31  1  0  0  0  0
 10 55  1  0  0  0  0
 11 12  1  0  0  0  0
 11 13  1  0  0  0  0
 11 32  1  0  0  0  0
 12 14  1  0  0  0  0
 12 33  1  0  0  0  0
 13 15  1  0  0  0  0
 13 34  1  0  0  0  0
 14 16  1  0  0  0  0
 14 35  1  0  0  0  0
 15 36  1  0  0  0  0
 16 37  1  0  0  0  0
 16 38  1  0  0  0  0
 17 18  1  0  0  0  0
 17 19  2  0  0  0  0
 18 20  1  0  0  0  0
 18 21  2  0  0  0  0
 19 23  1  0  0  0  0
 19 43  1  0  0  0  0
 20 22  1  0  0  0  0
 21 25  1  0  0  0  0
 22 24  1  0  0  0  0
 22 44  1  0  0  0  0
 22 45  1  0  0  0  0
 23 25  2  0  0  0  0
 24 26  1  0  0  0  0
 24 46  1  0  0  0  0
 24 47  1  0  0  0  0
 25 48  1  0  0  0  0
 26 27  2  0  0  0  0
 26 28  1  0  0  0  0
 27 29  1  0  0  0  0
 27 49  1  0  0  0  0
 28 30  2  0  0  0  0
 28 50  1  0  0  0  0
 29 31  2  0  0  0  0
 29 53  1  0  0  0  0
 30 31  1  0  0  0  0
 30 54  1  0  0  0  0
M  END
> <PUBCHEM_COMPOUND_CID>
45933907

> <PUBCHEM_CONFORMER_RMSD>
1.2

> <PUBCHEM_CONFORMER_DIVERSEORDER>
1
38
99
26
142
6
52
173
106
55
113
162
40
107
41
109
176
67
122
169
28
45
154
57
105
81
181
141
23
4
191
8
184
66
152
116
102
138
158
82
187
139
145
2
143
118
13
9
128
134
50
172
95
68
44
170
12
103
111
188
15
24
159
64
182
5
46
54
166
79
60
167
183
16
53
150
96
179
17
18
11
98
37
153
131
155
32
146
93
114
78
157
48
77
178
120
115
73
58
31
89
165
65
121
20
125
85
177
14
101
49
136
129
126
164
56
10
30
91
133
3
144
71
29
168
35
156
132
25
22
112
87
185
149
108
163
160
110
92
27
127
180
117
39
137
33
21
130
75
7
161
171
189
69
74
36
43
104
124
148
90
100
76
86
19
47
63
94
147
72
51
97
123
80
83
140
34
119
190
61
151
88
70
59
135
42
84
62
174
186
175

> <PUBCHEM_MMFF94_PARTIAL_CHARGES>
44
1 -0.56
10 -0.53
11 0.28
12 0.28
13 0.28
14 0.28
15 0.56
16 0.28
17 0.08
18 0.09
19 -0.15
2 -0.36
20 0.42
21 0.08
22 0.06
23 0.08
24 0.14
25 -0.15
26 -0.14
27 -0.15
28 -0.15
29 -0.15
3 -0.68
30 -0.15
31 0.08
39 0.4
4 -0.68
40 0.4
41 0.4
42 0.4
43 0.15
48 0.15
49 0.15
5 -0.68
50 0.15
51 0.45
52 0.45
53 0.15
54 0.15
55 0.45
6 -0.68
7 -0.53
8 -0.57
9 -0.53

> <PUBCHEM_EFFECTIVE_ROTOR_COUNT>
8.2

> <PUBCHEM_PHARMACOPHORE_FEATURES>
17
1 1 acceptor
1 10 donor
1 2 acceptor
1 3 acceptor
1 3 donor
1 4 acceptor
1 4 donor
1 5 acceptor
1 5 donor
1 6 acceptor
1 6 donor
1 7 donor
1 8 acceptor
1 9 donor
6 1 11 12 13 14 15 rings
6 17 18 19 21 23 25 rings
6 26 27 28 29 30 31 rings

> <PUBCHEM_HEAVY_ATOM_COUNT>
31

> <PUBCHEM_ATOM_DEF_STEREO_COUNT>
3

> <PUBCHEM_ATOM_UDEF_STEREO_COUNT>
2

> <PUBCHEM_BOND_DEF_STEREO_COUNT>
0

> <PUBCHEM_BOND_UDEF_STEREO_COUNT>
0

> <PUBCHEM_ISOTOPIC_ATOM_COUNT>
0

> <PUBCHEM_COMPONENT_COUNT>
1

> <PUBCHEM_CACTVS_TAUTO_COUNT>
42

> <PUBCHEM_CONFORMER_ID>
02BCE55300000001

> <PUBCHEM_MMFF94_ENERGY>
95.9929

> <PUBCHEM_FEATURE_SELFOVERLAP>
86.344

> <PUBCHEM_SHAPE_FINGERPRINT>
1100329 8 18338801221272185753
11135609 149 17405960317692030983
11552529 35 18340476829621578350
12156800 1 16669155357435890227
12633257 1 18338517443987828340
12788726 201 18266193887956771535
13004483 165 18057041521977510157
14020679 6 17845936217110774320
14068700 675 18268142248231033975
14659021 117 18337942489552972104
14705955 166 17418099788780807481
14844126 61 18343013423910290062
14856354 85 18342457016004483180
14866123 147 18409732889538859595
20600515 1 17682922777884943688
20775438 99 16751256208689962502
20775530 9 18117554252524455974
20832881 197 18190738842155748967
21860390 5 9547630698972283958
23559900 14 17391904134708287799
23728640 28 18410302388763103673
3383291 50 18411987953258638571
3411729 13 17689166612694039545
3610482 184 18115611278846246654
445580 42 18334300876607553312
50150288 127 17543124234058394396
57527295 17 17476926122590186407
57527452 28 17895189966153271213
57527585 103 17241347840029110802
6438718 38 18410584963452006042
9896288 288 18197508320278100833

> <PUBCHEM_SHAPE_MULTIPOLES>
579.27
9.89
5.76
2.08
22.39
1.18
-0.15
0.88
-2.15
-9.11
-1.49
-0.49
0.28
-2.4

> <PUBCHEM_SHAPE_SELFOVERLAP>
1237.194

> <PUBCHEM_SHAPE_VOLUME>
317.7

> <PUBCHEM_COORDINATE_TYPE>
2
5
10

$$$$
