10265686
  -OEChem-02172602303D

 48 49  0     1  0  0  0  0  0999 V2000
   -1.5903    1.2039    1.4933 O   0  0  0  0  0  0  0  0  0  0  0  0
    4.6256   -2.0668   -0.9425 O   0  0  0  0  0  0  0  0  0  0  0  0
    2.3959    1.5218   -0.1234 N   0  0  1  0  0  0  0  0  0  0  0  0
   -4.5662   -1.2800   -0.3925 N   0  0  2  0  0  0  0  0  0  0  0  0
    1.1047    1.3319    0.5515 C   0  0  2  0  0  0  0  0  0  0  0  0
    3.0054    0.1941   -0.2824 C   0  0  2  0  0  0  0  0  0  0  0  0
    1.4781    0.2977    1.6078 C   0  0  0  0  0  0  0  0  0  0  0  0
    2.4917   -0.6081    0.9198 C   0  0  0  0  0  0  0  0  0  0  0  0
   -0.0503    0.8428   -0.3287 C   0  0  0  0  0  0  0  0  0  0  0  0
   -3.6798   -0.2740    0.2089 C   0  0  2  0  0  0  0  0  0  0  0  0
   -4.1755    1.0294   -0.4207 C   0  0  0  0  0  0  0  0  0  0  0  0
   -2.2041   -0.5167   -0.0816 C   0  0  0  0  0  0  0  0  0  0  0  0
    4.5283    0.2626   -0.3045 C   0  0  0  0  0  0  0  0  0  0  0  0
   -1.3087    0.5798    0.4715 C   0  0  0  0  0  0  0  0  0  0  0  0
   -5.6293    0.7667   -0.7982 C   0  0  0  0  0  0  0  0  0  0  0  0
   -5.8973   -0.6684   -0.3760 C   0  0  0  0  0  0  0  0  0  0  0  0
    2.3308    2.2883   -1.3583 C   0  0  0  0  0  0  0  0  0  0  0  0
   -4.5554   -2.5553    0.3139 C   0  0  0  0  0  0  0  0  0  0  0  0
    5.1672   -1.1081   -0.3940 C   0  0  0  0  0  0  0  0  0  0  0  0
    6.5292   -1.2417    0.2361 C   0  0  0  0  0  0  0  0  0  0  0  0
    0.8083    2.2649    1.0466 H   0  0  0  0  0  0  0  0  0  0  0  0
    2.6430   -0.2926   -1.1986 H   0  0  0  0  0  0  0  0  0  0  0  0
    1.9672    0.7986    2.4541 H   0  0  0  0  0  0  0  0  0  0  0  0
    0.6401   -0.2744    2.0155 H   0  0  0  0  0  0  0  0  0  0  0  0
    1.9972   -1.5233    0.5728 H   0  0  0  0  0  0  0  0  0  0  0  0
    3.2740   -0.8998    1.6288 H   0  0  0  0  0  0  0  0  0  0  0  0
    0.2287   -0.0828   -0.8454 H   0  0  0  0  0  0  0  0  0  0  0  0
   -0.3099    1.5858   -1.0909 H   0  0  0  0  0  0  0  0  0  0  0  0
   -3.8455   -0.2198    1.2946 H   0  0  0  0  0  0  0  0  0  0  0  0
   -4.0994    1.8662    0.2821 H   0  0  0  0  0  0  0  0  0  0  0  0
   -3.6100    1.2988   -1.3211 H   0  0  0  0  0  0  0  0  0  0  0  0
   -2.0491   -0.5796   -1.1659 H   0  0  0  0  0  0  0  0  0  0  0  0
   -1.8604   -1.4599    0.3569 H   0  0  0  0  0  0  0  0  0  0  0  0
    4.8910    0.7541    0.6070 H   0  0  0  0  0  0  0  0  0  0  0  0
    4.8890    0.8430   -1.1607 H   0  0  0  0  0  0  0  0  0  0  0  0
   -6.3105    1.4658   -0.3028 H   0  0  0  0  0  0  0  0  0  0  0  0
   -5.7573    0.8829   -1.8808 H   0  0  0  0  0  0  0  0  0  0  0  0
   -6.3366   -0.6809    0.6299 H   0  0  0  0  0  0  0  0  0  0  0  0
   -6.5881   -1.1673   -1.0631 H   0  0  0  0  0  0  0  0  0  0  0  0
    1.8267    3.2462   -1.1889 H   0  0  0  0  0  0  0  0  0  0  0  0
    3.3371    2.5273   -1.7176 H   0  0  0  0  0  0  0  0  0  0  0  0
    1.8059    1.7582   -2.1603 H   0  0  0  0  0  0  0  0  0  0  0  0
   -5.2678   -3.2497   -0.1456 H   0  0  0  0  0  0  0  0  0  0  0  0
   -4.8169   -2.4489    1.3728 H   0  0  0  0  0  0  0  0  0  0  0  0
   -3.5717   -3.0308    0.2484 H   0  0  0  0  0  0  0  0  0  0  0  0
    6.4523   -1.0772    1.3137 H   0  0  0  0  0  0  0  0  0  0  0  0
    6.9209   -2.2470    0.0579 H   0  0  0  0  0  0  0  0  0  0  0  0
    7.2121   -0.5145   -0.2102 H   0  0  0  0  0  0  0  0  0  0  0  0
  1 14  2  0  0  0  0
  2 19  2  0  0  0  0
  3  5  1  0  0  0  0
  3  6  1  0  0  0  0
  3 17  1  0  0  0  0
  4 10  1  0  0  0  0
  4 16  1  0  0  0  0
  4 18  1  0  0  0  0
  5  7  1  0  0  0  0
  5  9  1  0  0  0  0
  5 21  1  0  0  0  0
  6  8  1  0  0  0  0
  6 13  1  0  0  0  0
  6 22  1  0  0  0  0
  7  8  1  0  0  0  0
  7 23  1  0  0  0  0
  7 24  1  0  0  0  0
  8 25  1  0  0  0  0
  8 26  1  0  0  0  0
  9 14  1  0  0  0  0
  9 27  1  0  0  0  0
  9 28  1  0  0  0  0
 10 11  1  0  0  0  0
 10 12  1  0  0  0  0
 10 29  1  0  0  0  0
 11 15  1  0  0  0  0
 11 30  1  0  0  0  0
 11 31  1  0  0  0  0
 12 14  1  0  0  0  0
 12 32  1  0  0  0  0
 12 33  1  0  0  0  0
 13 19  1  0  0  0  0
 13 34  1  0  0  0  0
 13 35  1  0  0  0  0
 15 16  1  0  0  0  0
 15 36  1  0  0  0  0
 15 37  1  0  0  0  0
 16 38  1  0  0  0  0
 16 39  1  0  0  0  0
 17 40  1  0  0  0  0
 17 41  1  0  0  0  0
 17 42  1  0  0  0  0
 18 43  1  0  0  0  0
 18 44  1  0  0  0  0
 18 45  1  0  0  0  0
 19 20  1  0  0  0  0
 20 46  1  0  0  0  0
 20 47  1  0  0  0  0
 20 48  1  0  0  0  0
M  END
> <PUBCHEM_COMPOUND_CID>
10265686

> <PUBCHEM_CONFORMER_RMSD>
1.2

> <PUBCHEM_CONFORMER_DIVERSEORDER>
1
69
84
14
32
46
104
141
129
160
21
22
98
101
30
123
26
58
52
29
110
168
25
205
36
42
44
188
87
208
182
115
53
83
5
55
65
48
102
125
206
128
196
161
10
38
78
139
154
45
23
135
8
157
119
82
126
179
105
89
67
116
79
3
159
147
107
43
50
7
6
72
192
114
146
174
35
149
200
68
47
180
51
93
194
189
90
124
18
134
169
106
73
178
148
85
187
156
130
49
171
197
81
201
20
210
120
131
94
2
191
28
167
173
31
193
66
54
24
60
111
96
132
199
63
95
185
56
17
153
211
181
108
76
41
186
164
64
184
202
88
166
127
103
190
204
15
92
183
150
109
175
143
170
172
151
136
144
4
13
140
198
113
138
59
145
121
91
133
195
9
61
158
34
152
40
11
57
39
122
71
117
75
27
162
62
209
176
203
70
165
137
177
33
77
99
74
80
97
19
142
12
118
100
16
112
207
155
37
86
163

> <PUBCHEM_MMFF94_PARTIAL_CHARGES>
16
1 -0.57
10 0.27
12 0.06
13 0.06
14 0.45
16 0.27
17 0.27
18 0.27
19 0.45
2 -0.57
20 0.06
3 -0.81
4 -0.81
5 0.27
6 0.27
9 0.06

> <PUBCHEM_EFFECTIVE_ROTOR_COUNT>
8

> <PUBCHEM_PHARMACOPHORE_FEATURES>
6
1 1 acceptor
1 2 acceptor
1 3 cation
1 4 cation
5 3 5 6 7 8 rings
5 4 10 11 15 16 rings

> <PUBCHEM_HEAVY_ATOM_COUNT>
20

> <PUBCHEM_ATOM_DEF_STEREO_COUNT>
0

> <PUBCHEM_ATOM_UDEF_STEREO_COUNT>
3

> <PUBCHEM_BOND_DEF_STEREO_COUNT>
0

> <PUBCHEM_BOND_UDEF_STEREO_COUNT>
0

> <PUBCHEM_ISOTOPIC_ATOM_COUNT>
0

> <PUBCHEM_COMPONENT_COUNT>
1

> <PUBCHEM_CACTVS_TAUTO_COUNT>
9

> <PUBCHEM_CONFORMER_ID>
009CA45600000001

> <PUBCHEM_MMFF94_ENERGY>
31.1653

> <PUBCHEM_FEATURE_SELFOVERLAP>
30.447

> <PUBCHEM_SHAPE_FINGERPRINT>
106641 1 14332830613694230762
10670039 82 14201388353374074294
11724838 91 9439392537109435161
11796584 16 18413387618274988239
12236239 1 18412827992636693177
12507557 5 11527947863956587931
12596602 18 12319739150369694262
12633257 1 15051725413157121262
12670543 26 17313103016981973960
13167823 11 18334855073823826447
13533116 47 18060137652532830888
13685833 64 18343865519514784442
13955234 65 17773309248164569008
14251751 18 18341896315659220455
14251752 14 17968088673195130343
14252887 29 14548750490679534964
14576447 43 18260828172988146050
14863182 85 16916800569531920348
15183329 4 18040992908450743443
17492 89 18119249717088354375
17834072 33 18333733549929638741
17834072 8 18335695027787858061
17844677 252 18260554454685597981
17857418 61 18202563956051223582
18186145 218 16588296233363920949
18222031 100 18334575725014215504
18681886 176 18410287051635291536
193927 3 18060149729754098270
19784866 240 18342463620946499204
200 152 18202001027667571353
20281389 69 7997966869455413382
20374829 77 18408319973529919738
20388580 30 18408327687840011132
20645477 56 11891337547314657281
20645477 70 18334576875627600812
21150785 3 13045945737972910331
21267235 1 18261114093408793787
21637258 2 18200868488152641714
221357 26 17749384854048514293
2215653 11 18342166757502939375
22224240 67 12967118407507912148
22393880 68 18113328735018411195
23198884 109 16732704930576883517
23559900 14 18340197592064775465
25122255 55 18201446878176252711
2838139 119 11458431271186630330
29717793 49 18410292510254167413
3004659 81 18335415776918410921
3009799 131 17603587418289238284
3060560 45 17603302674541540410
314173 85 15985112920156771657
338550 245 18341331196784498190
3472631 163 11747227865482086754
4214541 1 18335136505972254941
4325135 7 11530491038598751577
44062 13 18411696634549285831
46194498 28 18040436615823420620
465052 167 18060423542250716295
4990 188 18260266373368385657
5104073 3 17775011210301115617
542803 24 13045941304764703269
559249 180 18341892957606328167
59682541 35 17917417732629879938
633830 44 17313661663520706389
960060 61 17749115486979756070
9709674 26 18116437136031507395
9841814 1 16702026434548686584

> <PUBCHEM_SHAPE_MULTIPOLES>
389.89
15.16
2.05
1.11
1.41
0.37
0.24
7.65
-3.69
-0.14
-0.43
-0.39
-0.23
0.16

> <PUBCHEM_SHAPE_SELFOVERLAP>
784.047

> <PUBCHEM_SHAPE_VOLUME>
232.1

> <PUBCHEM_COORDINATE_TYPE>
2
5
10

$$$$
