5366119
  -OEChem-02172602423D

 36 36  0     1  0  0  0  0  0999 V2000
    2.2234   -0.8589    0.9853 S   0  0  0  0  0  0  0  0  0  0  0  0
    4.0611    2.5397    0.0263 F   0  0  0  0  0  0  0  0  0  0  0  0
    1.7533    1.2934   -0.3986 F   0  0  0  0  0  0  0  0  0  0  0  0
    2.1951    1.6565    1.7041 F   0  0  0  0  0  0  0  0  0  0  0  0
    4.5702   -0.8306   -0.7910 F   0  0  0  0  0  0  0  0  0  0  0  0
    5.7456    0.9188   -1.3217 F   0  0  0  0  0  0  0  0  0  0  0  0
    3.6941    0.7266   -2.0424 F   0  0  0  0  0  0  0  0  0  0  0  0
    0.8562   -3.3953   -0.2792 F   0  0  0  0  0  0  0  0  0  0  0  0
    0.5896   -1.6578   -1.5517 F   0  0  0  0  0  0  0  0  0  0  0  0
   -1.1074   -2.9466   -1.0968 F   0  0  0  0  0  0  0  0  0  0  0  0
   -5.5167    1.9876   -1.2379 O   0  0  0  0  0  0  0  0  0  0  0  0
   -1.7076   -1.4779    0.8616 N   0  0  0  0  0  0  0  0  0  0  0  0
   -0.1253    0.6980    3.3585 N   0  0  0  0  0  0  0  0  0  0  0  0
    3.9907    1.1921    0.2606 C   0  0  1  0  0  0  0  0  0  0  0  0
    2.5446    0.8922    0.6353 C   0  0  0  0  0  0  0  0  0  0  0  0
   -0.3537   -1.4966    0.6179 C   0  0  0  0  0  0  0  0  0  0  0  0
   -2.6619   -0.6099    0.3362 C   0  0  0  0  0  0  0  0  0  0  0  0
    4.5062    0.5065   -0.9870 C   0  0  0  0  0  0  0  0  0  0  0  0
    0.5439   -0.7983    1.3558 C   0  0  0  0  0  0  0  0  0  0  0  0
    0.0036   -2.3782   -0.5571 C   0  0  0  0  0  0  0  0  0  0  0  0
   -4.0137   -0.7321    0.6935 C   0  0  0  0  0  0  0  0  0  0  0  0
   -2.2894    0.4031   -0.5615 C   0  0  0  0  0  0  0  0  0  0  0  0
   -4.5848    1.1388   -0.7247 C   0  0  0  0  0  0  0  0  0  0  0  0
   -4.9693    0.1367    0.1663 C   0  0  0  0  0  0  0  0  0  0  0  0
   -3.2448    1.2719   -1.0887 C   0  0  0  0  0  0  0  0  0  0  0  0
    0.1652    0.0240    2.4591 C   0  0  0  0  0  0  0  0  0  0  0  0
   -6.8683    1.7963   -0.8224 C   0  0  0  0  0  0  0  0  0  0  0  0
    4.6553    0.9916    1.1073 H   0  0  0  0  0  0  0  0  0  0  0  0
   -2.0800   -2.3545    1.2147 H   0  0  0  0  0  0  0  0  0  0  0  0
   -4.3282   -1.5082    1.3877 H   0  0  0  0  0  0  0  0  0  0  0  0
   -1.2554    0.5373   -0.8694 H   0  0  0  0  0  0  0  0  0  0  0  0
   -5.9917   -0.0226    0.4914 H   0  0  0  0  0  0  0  0  0  0  0  0
   -2.9396    2.0507   -1.7823 H   0  0  0  0  0  0  0  0  0  0  0  0
   -6.9848    1.9578    0.2547 H   0  0  0  0  0  0  0  0  0  0  0  0
   -7.2526    0.8210   -1.1399 H   0  0  0  0  0  0  0  0  0  0  0  0
   -7.4724    2.5575   -1.3268 H   0  0  0  0  0  0  0  0  0  0  0  0
  1 15  1  0  0  0  0
  1 19  1  0  0  0  0
  2 14  1  0  0  0  0
  3 15  1  0  0  0  0
  4 15  1  0  0  0  0
  5 18  1  0  0  0  0
  6 18  1  0  0  0  0
  7 18  1  0  0  0  0
  8 20  1  0  0  0  0
  9 20  1  0  0  0  0
 10 20  1  0  0  0  0
 11 23  1  0  0  0  0
 11 27  1  0  0  0  0
 12 16  1  0  0  0  0
 12 17  1  0  0  0  0
 12 29  1  0  0  0  0
 13 26  3  0  0  0  0
 14 15  1  0  0  0  0
 14 18  1  0  0  0  0
 14 28  1  0  0  0  0
 16 19  2  0  0  0  0
 16 20  1  0  0  0  0
 17 21  2  0  0  0  0
 17 22  1  0  0  0  0
 19 26  1  0  0  0  0
 21 24  1  0  0  0  0
 21 30  1  0  0  0  0
 22 25  2  0  0  0  0
 22 31  1  0  0  0  0
 23 24  2  0  0  0  0
 23 25  1  0  0  0  0
 24 32  1  0  0  0  0
 25 33  1  0  0  0  0
 27 34  1  0  0  0  0
 27 35  1  0  0  0  0
 27 36  1  0  0  0  0
M  END
> <PUBCHEM_COMPOUND_CID>
5366119

> <PUBCHEM_CONFORMER_RMSD>
0.8

> <PUBCHEM_CONFORMER_DIVERSEORDER>
1
63
64
95
89
59
129
102
50
91
115
113
126
22
56
125
78
117
133
86
116
61
124
83
106
35
123
48
46
20
85
36
43
121
127
101
71
98
15
93
30
68
67
17
49
45
70
84
53
136
94
33
52
55
131
47
107
5
73
128
92
10
79
111
54
87
34
76
66
51
74
103
104
120
134
96
32
90
41
29
65
137
81
119
69
118
112
109
26
88
105
110
19
62
130
135
80
97
40
31
25
60
114
72
21
9
44
58
108
39
132
27
57
122
77
6
82
37
3
99
7
23
100
38
16
2
42
75
8
13
18
12
11
24
28
4
14

> <PUBCHEM_MMFF94_PARTIAL_CHARGES>
32
1 -0.33
10 -0.34
11 -0.36
12 -0.6
13 -0.56
14 0.34
15 0.91
16 -0.04
17 0.1
18 1.02
19 0.17
2 -0.34
20 1.16
21 -0.15
22 -0.15
23 0.08
24 -0.15
25 -0.15
26 0.49
27 0.28
29 0.4
3 -0.34
30 0.15
31 0.15
32 0.15
33 0.15
4 -0.34
5 -0.34
6 -0.34
7 -0.34
8 -0.34
9 -0.34

> <PUBCHEM_EFFECTIVE_ROTOR_COUNT>
8

> <PUBCHEM_PHARMACOPHORE_FEATURES>
5
1 11 acceptor
1 12 cation
1 12 donor
1 13 acceptor
6 17 21 22 23 24 25 rings

> <PUBCHEM_HEAVY_ATOM_COUNT>
27

> <PUBCHEM_ATOM_DEF_STEREO_COUNT>
0

> <PUBCHEM_ATOM_UDEF_STEREO_COUNT>
1

> <PUBCHEM_BOND_DEF_STEREO_COUNT>
1

> <PUBCHEM_BOND_UDEF_STEREO_COUNT>
0

> <PUBCHEM_ISOTOPIC_ATOM_COUNT>
0

> <PUBCHEM_COMPONENT_COUNT>
1

> <PUBCHEM_CACTVS_TAUTO_COUNT>
2

> <PUBCHEM_CONFORMER_ID>
0051E16700000001

> <PUBCHEM_MMFF94_ENERGY>
73.3955

> <PUBCHEM_FEATURE_SELFOVERLAP>
25.372

> <PUBCHEM_SHAPE_FINGERPRINT>
10165383 225 18342750636826758299
10498660 4 18335698347455089129
11796584 16 11743850135828273051
12403259 415 18341895242233530753
12596602 18 15357700803417622945
12633257 1 15213296495286092868
12730499 353 18413107234931919571
12788726 201 16988300706779352016
12892183 10 13551459329292626285
12895836 83 18338515351821368232
12895837 130 17899985121162459180
13149001 5 17201911750785075227
13544653 18 9151181947370733698
14251751 18 11671776070775621749
14341114 328 16588020234153962801
14787075 74 16444196502817166331
14840074 17 12901555653908427110
14848178 5 11743843555711950965
15163728 17 18188504487987055895
15238133 3 17603861235133843976
15961568 22 17894910690353381989
17899979 19 18117565016652399306
1813 80 14979950354884313315
18186145 218 17988641938547793675
192875 21 17059789874864964696
20465049 17 17489580178322350271
20626108 58 13110957630490889777
21033648 29 18339917224878416768
21756936 100 17459187542152715728
21781051 124 15051432965573283141
22393880 68 17774705550864713927
23557571 272 18041573502810649851
23559900 14 18120642545054936803
2637199 183 18334009493014819985
2838139 119 18187917391690859165
3472631 163 17603864469312334925
3729539 64 18198923421918758502
392239 28 14129338532926179980
427121 178 16081090333510934593
439807 62 14045447987057310045
44802255 64 18192454054720292950
463206 1 15051745182975994614
56616090 163 18409450263457880227
7399639 24 16548602995864566986
7808743 9 17894630366237572993

> <PUBCHEM_SHAPE_MULTIPOLES>
478.2
11.96
2.61
1.98
7.9
1.05
1.35
-10.31
-4.83
0.01
-0.95
-1.21
0.1
0.69

> <PUBCHEM_SHAPE_SELFOVERLAP>
996.582

> <PUBCHEM_SHAPE_VOLUME>
274.6

> <PUBCHEM_COORDINATE_TYPE>
2
5
10

$$$$
