100411
  -OEChem-02172602483D

 17 17  0     0  0  0  0  0  0999 V2000
   -2.1003    0.0010   -1.1702 O   0  0  0  0  0  0  0  0  0  0  0  0
    2.8992    0.0005    0.0495 O   0  0  0  0  0  0  0  0  0  0  0  0
   -1.2610    0.0004   -0.0126 C   0  0  0  0  0  0  0  0  0  0  0  0
   -0.4271   -1.2540   -0.0328 C   0  0  0  0  0  0  0  0  0  0  0  0
   -0.4275    1.2535   -0.0316 C   0  0  0  0  0  0  0  0  0  0  0  0
   -2.1770   -0.0011    1.2130 C   0  0  0  0  0  0  0  0  0  0  0  0
    0.9104   -1.2680   -0.0146 C   0  0  0  0  0  0  0  0  0  0  0  0
    0.9101    1.2677   -0.0138 C   0  0  0  0  0  0  0  0  0  0  0  0
    1.6732   -0.0001    0.0130 C   0  0  0  0  0  0  0  0  0  0  0  0
   -0.9511   -2.2068   -0.0582 H   0  0  0  0  0  0  0  0  0  0  0  0
   -0.9526    2.2057   -0.0578 H   0  0  0  0  0  0  0  0  0  0  0  0
   -1.6083    0.0126    2.1500 H   0  0  0  0  0  0  0  0  0  0  0  0
   -2.8458    0.8683    1.2055 H   0  0  0  0  0  0  0  0  0  0  0  0
   -2.8273   -0.8845    1.2223 H   0  0  0  0  0  0  0  0  0  0  0  0
    1.4663   -2.1982   -0.0231 H   0  0  0  0  0  0  0  0  0  0  0  0
    1.4657    2.1981   -0.0221 H   0  0  0  0  0  0  0  0  0  0  0  0
   -2.6678   -0.7884   -1.1379 H   0  0  0  0  0  0  0  0  0  0  0  0
  1  3  1  0  0  0  0
  1 17  1  0  0  0  0
  2  9  2  0  0  0  0
  3  4  1  0  0  0  0
  3  5  1  0  0  0  0
  3  6  1  0  0  0  0
  4  7  2  0  0  0  0
  4 10  1  0  0  0  0
  5  8  2  0  0  0  0
  5 11  1  0  0  0  0
  6 12  1  0  0  0  0
  6 13  1  0  0  0  0
  6 14  1  0  0  0  0
  7  9  1  0  0  0  0
  7 15  1  0  0  0  0
  8  9  1  0  0  0  0
  8 16  1  0  0  0  0
M  END
> <PUBCHEM_COMPOUND_CID>
100411

> <PUBCHEM_CONFORMER_RMSD>
0.4

> <PUBCHEM_CONFORMER_DIVERSEORDER>
1

> <PUBCHEM_MMFF94_PARTIAL_CHARGES>
13
1 -0.68
10 0.15
11 0.15
15 0.15
16 0.15
17 0.4
2 -0.57
3 0.56
4 -0.29
5 -0.29
7 -0.14
8 -0.14
9 0.54

> <PUBCHEM_EFFECTIVE_ROTOR_COUNT>
0.2

> <PUBCHEM_PHARMACOPHORE_FEATURES>
4
1 1 acceptor
1 1 donor
1 2 acceptor
6 3 4 5 7 8 9 rings

> <PUBCHEM_HEAVY_ATOM_COUNT>
9

> <PUBCHEM_ATOM_DEF_STEREO_COUNT>
0

> <PUBCHEM_ATOM_UDEF_STEREO_COUNT>
0

> <PUBCHEM_BOND_DEF_STEREO_COUNT>
0

> <PUBCHEM_BOND_UDEF_STEREO_COUNT>
0

> <PUBCHEM_ISOTOPIC_ATOM_COUNT>
0

> <PUBCHEM_COMPONENT_COUNT>
1

> <PUBCHEM_CACTVS_TAUTO_COUNT>
1

> <PUBCHEM_CONFORMER_ID>
0001883B00000001

> <PUBCHEM_MMFF94_ENERGY>
13.1817

> <PUBCHEM_FEATURE_SELFOVERLAP>
20.297

> <PUBCHEM_SHAPE_FINGERPRINT>
12423570 1 10343911068676986033
15310529 11 16733269035945163668
16945 1 18410856564161571218
18185500 45 18343295972486159327
21040471 1 18411420635059265258
23235685 24 18411423911998051432
2748010 2 18122345670826680278
29004967 10 18261121750470390856
369184 2 18409162212416585178
5084963 1 18339356499675492667

> <PUBCHEM_SHAPE_MULTIPOLES>
173.48
3.01
1.35
0.88
0.67
0
-0.01
0
-0.27
0.2
0.03
-0.6
0
0

> <PUBCHEM_SHAPE_SELFOVERLAP>
355.799

> <PUBCHEM_SHAPE_VOLUME>
99.9

> <PUBCHEM_COORDINATE_TYPE>
2
5
10

$$$$
