12300213
  -OEChem-02172602373D

 24 25  0     1  0  0  0  0  0999 V2000
    3.4387    0.0353   -0.3610 O   0  0  0  0  0  0  0  0  0  0  0  0
    2.3556    1.7798    0.6136 O   0  0  0  0  0  0  0  0  0  0  0  0
    0.1910   -2.4437    0.0230 N   0  0  0  0  0  0  0  0  0  0  0  0
   -2.5108    0.2387   -0.3014 C   0  0  1  0  0  0  0  0  0  0  0  0
   -1.9668    1.6200   -0.7288 C   0  0  0  0  0  0  0  0  0  0  0  0
   -0.5462    1.7447   -0.1524 C   0  0  0  0  0  0  0  0  0  0  0  0
   -1.2343   -0.5344   -0.1766 C   0  0  0  0  0  0  0  0  0  0  0  0
   -0.1269    0.3105   -0.1031 C   0  0  0  0  0  0  0  0  0  0  0  0
   -3.2769    0.2962    1.0144 C   0  0  0  0  0  0  0  0  0  0  0  0
    1.1451   -0.2039    0.0454 C   0  0  0  0  0  0  0  0  0  0  0  0
   -1.0383   -1.8947   -0.1100 C   0  0  0  0  0  0  0  0  0  0  0  0
    1.2452   -1.5867    0.0978 C   0  0  0  0  0  0  0  0  0  0  0  0
    2.3244    0.6383    0.1391 C   0  0  0  0  0  0  0  0  0  0  0  0
   -3.1464   -0.1744   -1.0924 H   0  0  0  0  0  0  0  0  0  0  0  0
   -2.6110    2.4525   -0.4273 H   0  0  0  0  0  0  0  0  0  0  0  0
   -1.9027    1.6485   -1.8262 H   0  0  0  0  0  0  0  0  0  0  0  0
   -0.5658    2.1706    0.8560 H   0  0  0  0  0  0  0  0  0  0  0  0
    0.0846    2.3521   -0.8074 H   0  0  0  0  0  0  0  0  0  0  0  0
   -2.6688    0.7136    1.8251 H   0  0  0  0  0  0  0  0  0  0  0  0
   -4.1722    0.9179    0.9104 H   0  0  0  0  0  0  0  0  0  0  0  0
   -3.5960   -0.7050    1.3241 H   0  0  0  0  0  0  0  0  0  0  0  0
   -1.8627   -2.5963   -0.1588 H   0  0  0  0  0  0  0  0  0  0  0  0
    2.2016   -2.0878    0.2183 H   0  0  0  0  0  0  0  0  0  0  0  0
    4.2283    0.6132   -0.2916 H   0  0  0  0  0  0  0  0  0  0  0  0
  1 13  1  0  0  0  0
  1 24  1  0  0  0  0
  2 13  2  0  0  0  0
  3 11  2  0  0  0  0
  3 12  1  0  0  0  0
  4  5  1  0  0  0  0
  4  7  1  0  0  0  0
  4  9  1  0  0  0  0
  4 14  1  0  0  0  0
  5  6  1  0  0  0  0
  5 15  1  0  0  0  0
  5 16  1  0  0  0  0
  6  8  1  0  0  0  0
  6 17  1  0  0  0  0
  6 18  1  0  0  0  0
  7  8  2  0  0  0  0
  7 11  1  0  0  0  0
  8 10  1  0  0  0  0
  9 19  1  0  0  0  0
  9 20  1  0  0  0  0
  9 21  1  0  0  0  0
 10 12  2  0  0  0  0
 10 13  1  0  0  0  0
 11 22  1  0  0  0  0
 12 23  1  0  0  0  0
M  END
> <PUBCHEM_COMPOUND_CID>
12300213

> <PUBCHEM_CONFORMER_RMSD>
0.6

> <PUBCHEM_CONFORMER_DIVERSEORDER>
1

> <PUBCHEM_MMFF94_PARTIAL_CHARGES>
14
1 -0.65
10 0.09
11 0.16
12 0.16
13 0.63
2 -0.57
22 0.15
23 0.15
24 0.5
3 -0.62
4 0.14
6 0.14
7 -0.14
8 -0.14

> <PUBCHEM_EFFECTIVE_ROTOR_COUNT>
1.6

> <PUBCHEM_PHARMACOPHORE_FEATURES>
6
1 1 acceptor
1 2 acceptor
1 3 acceptor
3 1 2 13 anion
5 4 5 6 7 8 rings
6 3 7 8 10 11 12 rings

> <PUBCHEM_HEAVY_ATOM_COUNT>
13

> <PUBCHEM_ATOM_DEF_STEREO_COUNT>
1

> <PUBCHEM_ATOM_UDEF_STEREO_COUNT>
0

> <PUBCHEM_BOND_DEF_STEREO_COUNT>
0

> <PUBCHEM_BOND_UDEF_STEREO_COUNT>
0

> <PUBCHEM_ISOTOPIC_ATOM_COUNT>
0

> <PUBCHEM_COMPONENT_COUNT>
1

> <PUBCHEM_CACTVS_TAUTO_COUNT>
1

> <PUBCHEM_CONFORMER_ID>
00BBAFB500000001

> <PUBCHEM_MMFF94_ENERGY>
39.2287

> <PUBCHEM_FEATURE_SELFOVERLAP>
30.588

> <PUBCHEM_SHAPE_FINGERPRINT>
10967382 1 18410290281097276422
11132069 177 18339636853707937241
12423570 1 7943478263937308599
12524768 44 18410292484568636055
13380535 21 18411430513421171326
13380535 76 18410568474772142686
14648413 74 17831577578893903481
15219456 202 18117562829880087821
15309172 13 18410579483057736841
15490181 7 18337940238499329254
15775835 57 18411986849013777712
16945 1 18339351989885868423
17844478 74 18187657877113859529
17990270 104 17833263125982443011
193761 8 17762054341804089245
19973954 147 18049157761666215213
20871998 184 18125726926675056527
21040471 1 18409441492643986478
21501502 16 18048875200226419373
22802520 49 18271820067739792654
2334 1 18050002499986476508
23493267 7 17531245006977783769
23552423 10 18048028567551150615
241688 4 16105846623963470787
2748010 2 18194399124379075702
5084963 1 18131340904096871096
5255222 1 18411130329529651696
528886 8 18411414024972780027
53812653 166 18413109454754596464
6333449 129 18268142231113987286
7364860 26 18125156030974082734
81228 2 17905880736284418882

> <PUBCHEM_SHAPE_MULTIPOLES>
250.81
4.23
2.2
0.77
0.6
0.66
-0.06
-1.33
-0.52
0.23
0.06
-0.32
-0.12
0.29

> <PUBCHEM_SHAPE_SELFOVERLAP>
542.555

> <PUBCHEM_SHAPE_VOLUME>
139.5

> <PUBCHEM_COORDINATE_TYPE>
2
5
10

$$$$
