10111585
  -OEChem-02172602443D

 52 53  0     1  0  0  0  0  0999 V2000
   -2.2523   -0.0708   -1.5513 O   0  0  0  0  0  0  0  0  0  0  0  0
   -4.8584    0.7728    0.7737 O   0  0  0  0  0  0  0  0  0  0  0  0
   -4.9975   -1.5060   -0.7162 O   0  0  0  0  0  0  0  0  0  0  0  0
   -1.3106    1.9803    0.0995 O   0  0  0  0  0  0  0  0  0  0  0  0
   -0.8040    4.2253   -0.0096 O   0  0  0  0  0  0  0  0  0  0  0  0
    2.1952   -3.0958    2.0417 O   0  0  0  0  0  0  0  0  0  0  0  0
   -1.4384   -2.0737   -0.5712 N   0  0  0  0  0  0  0  0  0  0  0  0
   -0.7406   -1.6732    0.5025 N   0  0  0  0  0  0  0  0  0  0  0  0
    0.3217   -3.4706   -0.1429 N   0  0  0  0  0  0  0  0  0  0  0  0
    1.3357    3.9091    1.6316 N   0  0  0  0  0  0  0  0  0  0  0  0
    4.0781    0.6964   -0.5447 N   0  0  0  0  0  0  0  0  0  0  0  0
    1.0347   -1.2407    2.6800 N   0  0  0  0  0  0  0  0  0  0  0  0
    4.8238   -0.9127   -2.1647 N   0  0  0  0  0  0  0  0  0  0  0  0
    5.9700   -0.6017   -0.2194 N   0  0  0  0  0  0  0  0  0  0  0  0
   -3.6403    0.2223    0.3207 C   0  0  1  0  0  0  0  0  0  0  0  0
   -3.7488   -1.2367   -0.0813 C   0  0  2  0  0  0  0  0  0  0  0  0
   -3.1596    0.8757   -0.9634 C   0  0  1  0  0  0  0  0  0  0  0  0
   -2.6204   -1.3926   -1.1022 C   0  0  1  0  0  0  0  0  0  0  0  0
   -2.4489    2.1986   -0.7400 C   0  0  0  0  0  0  0  0  0  0  0  0
   -0.7554   -3.1646   -0.9245 C   0  0  0  0  0  0  0  0  0  0  0  0
    0.6027    2.6963    1.2716 C   0  0  1  0  0  0  0  0  0  0  0  0
   -0.5685    3.0916    0.3884 C   0  0  0  0  0  0  0  0  0  0  0  0
    1.5184    1.6667    0.5919 C   0  0  0  0  0  0  0  0  0  0  0  0
    0.3036   -2.5088    0.7504 C   0  0  0  0  0  0  0  0  0  0  0  0
    2.0976    2.1235   -0.7565 C   0  0  0  0  0  0  0  0  0  0  0  0
    2.9527    1.0440   -1.4144 C   0  0  0  0  0  0  0  0  0  0  0  0
    1.2209   -2.3360    1.8273 C   0  0  0  0  0  0  0  0  0  0  0  0
    4.8885   -0.2186   -0.9771 C   0  0  0  0  0  0  0  0  0  0  0  0
   -2.8946    0.3113    1.1195 H   0  0  0  0  0  0  0  0  0  0  0  0
   -3.9933    1.0318   -1.6596 H   0  0  0  0  0  0  0  0  0  0  0  0
   -3.6760   -1.9098    0.7791 H   0  0  0  0  0  0  0  0  0  0  0  0
   -2.9345   -1.9669   -1.9813 H   0  0  0  0  0  0  0  0  0  0  0  0
   -2.0953    2.5888   -1.7015 H   0  0  0  0  0  0  0  0  0  0  0  0
   -3.1213    2.9270   -0.2736 H   0  0  0  0  0  0  0  0  0  0  0  0
   -4.7031    1.7115    0.9728 H   0  0  0  0  0  0  0  0  0  0  0  0
   -4.9910   -2.4408   -0.9844 H   0  0  0  0  0  0  0  0  0  0  0  0
   -1.0349   -3.7709   -1.7767 H   0  0  0  0  0  0  0  0  0  0  0  0
    0.1915    2.2654    2.1923 H   0  0  0  0  0  0  0  0  0  0  0  0
    2.3333    1.4114    1.2809 H   0  0  0  0  0  0  0  0  0  0  0  0
    0.9542    0.7416    0.4268 H   0  0  0  0  0  0  0  0  0  0  0  0
    2.7073    3.0230   -0.6093 H   0  0  0  0  0  0  0  0  0  0  0  0
    1.2878    2.3897   -1.4452 H   0  0  0  0  0  0  0  0  0  0  0  0
    0.7339    4.5233    2.1791 H   0  0  0  0  0  0  0  0  0  0  0  0
    2.1203    3.6676    2.2358 H   0  0  0  0  0  0  0  0  0  0  0  0
    2.3290    0.1623   -1.6070 H   0  0  0  0  0  0  0  0  0  0  0  0
    3.3185    1.4282   -2.3741 H   0  0  0  0  0  0  0  0  0  0  0  0
    0.2707   -0.5842    2.5542 H   0  0  0  0  0  0  0  0  0  0  0  0
    1.6668   -1.0699    3.4549 H   0  0  0  0  0  0  0  0  0  0  0  0
    5.5196   -1.6126   -2.3993 H   0  0  0  0  0  0  0  0  0  0  0  0
    4.0887   -0.7546   -2.8445 H   0  0  0  0  0  0  0  0  0  0  0  0
    6.6154   -1.3157   -0.5390 H   0  0  0  0  0  0  0  0  0  0  0  0
    6.1520   -0.1793    0.6846 H   0  0  0  0  0  0  0  0  0  0  0  0
  1 17  1  0  0  0  0
  1 18  1  0  0  0  0
  2 15  1  0  0  0  0
  2 35  1  0  0  0  0
  3 16  1  0  0  0  0
  3 36  1  0  0  0  0
  4 19  1  0  0  0  0
  4 22  1  0  0  0  0
  5 22  2  0  0  0  0
  6 27  2  0  0  0  0
  7  8  1  0  0  0  0
  7 18  1  0  0  0  0
  7 20  1  0  0  0  0
  8 24  2  0  0  0  0
  9 20  2  0  0  0  0
  9 24  1  0  0  0  0
 10 21  1  0  0  0  0
 10 43  1  0  0  0  0
 10 44  1  0  0  0  0
 11 26  1  0  0  0  0
 11 28  2  0  0  0  0
 12 27  1  0  0  0  0
 12 47  1  0  0  0  0
 12 48  1  0  0  0  0
 13 28  1  0  0  0  0
 13 49  1  0  0  0  0
 13 50  1  0  0  0  0
 14 28  1  0  0  0  0
 14 51  1  0  0  0  0
 14 52  1  0  0  0  0
 15 16  1  0  0  0  0
 15 17  1  0  0  0  0
 15 29  1  0  0  0  0
 16 18  1  0  0  0  0
 16 31  1  0  0  0  0
 17 19  1  0  0  0  0
 17 30  1  0  0  0  0
 18 32  1  0  0  0  0
 19 33  1  0  0  0  0
 19 34  1  0  0  0  0
 20 37  1  0  0  0  0
 21 22  1  0  0  0  0
 21 23  1  0  0  0  0
 21 38  1  0  0  0  0
 23 25  1  0  0  0  0
 23 39  1  0  0  0  0
 23 40  1  0  0  0  0
 24 27  1  0  0  0  0
 25 26  1  0  0  0  0
 25 41  1  0  0  0  0
 25 42  1  0  0  0  0
 26 45  1  0  0  0  0
 26 46  1  0  0  0  0
M  END
> <PUBCHEM_COMPOUND_CID>
10111585

> <PUBCHEM_CONFORMER_RMSD>
1.2

> <PUBCHEM_CONFORMER_DIVERSEORDER>
7
100
31
20
63
67
76
53
93
70
73
47
95
88
44
119
55
136
114
117
49
133
28
26
38
35
122
124
135
6
115
99
56
45
96
57
60
71
78
13
102
130
46
10
41
75
83
118
48
90
25
37
89
94
12
84
127
129
86
39
120
138
32
79
43
85
101
87
108
82
106
14
137
77
105
121
36
113
52
16
66
51
50
111
54
62
132
123
3
81
92
98
128
61
19
29
18
131
30
15
112
42
72
59
9
33
116
107
74
110
80
109
125
8
126
24
134
69
97
103
27
91
2
68
22
11
40
1
5
4
34
65
21
17
23
104
58
64

> <PUBCHEM_MMFF94_PARTIAL_CHARGES>
37
1 -0.56
10 -0.99
11 -0.7
12 -0.8
13 -0.85
14 -0.85
15 0.28
16 0.28
17 0.28
18 0.54
19 0.28
2 -0.68
20 0.04
21 0.33
22 0.66
24 0.43
26 0.25
27 0.72
28 0.55
3 -0.68
35 0.4
36 0.4
37 0.15
4 -0.43
43 0.36
44 0.36
47 0.37
48 0.37
49 0.4
5 -0.57
50 0.4
51 0.4
52 0.4
6 -0.57
7 0.31
8 -0.71
9 -0.57

> <PUBCHEM_EFFECTIVE_ROTOR_COUNT>
11

> <PUBCHEM_PHARMACOPHORE_FEATURES>
17
1 1 acceptor
1 10 cation
1 10 donor
1 12 donor
1 13 donor
1 14 donor
1 2 acceptor
1 2 donor
1 3 acceptor
1 3 donor
1 5 acceptor
1 6 acceptor
3 7 9 20 cation
3 8 9 24 cation
4 11 13 14 28 cation
5 1 15 16 17 18 rings
5 7 8 9 20 24 rings

> <PUBCHEM_HEAVY_ATOM_COUNT>
28

> <PUBCHEM_ATOM_DEF_STEREO_COUNT>
5

> <PUBCHEM_ATOM_UDEF_STEREO_COUNT>
0

> <PUBCHEM_BOND_DEF_STEREO_COUNT>
0

> <PUBCHEM_BOND_UDEF_STEREO_COUNT>
0

> <PUBCHEM_ISOTOPIC_ATOM_COUNT>
0

> <PUBCHEM_COMPONENT_COUNT>
1

> <PUBCHEM_CACTVS_TAUTO_COUNT>
4

> <PUBCHEM_CONFORMER_ID>
009A4A6100000007

> <PUBCHEM_MMFF94_ENERGY>
65.6025

> <PUBCHEM_FEATURE_SELFOVERLAP>
89.093

> <PUBCHEM_SHAPE_FINGERPRINT>
11578080 2 16806435904536002887
12035759 4 18336548192770812994
12712778 12 18336530682568825448
12788726 201 18339939164304412308
1361 2 15459308158941494278
14117953 113 16390417842845739828
14251740 79 18337123284786677828
14251751 93 18337395924630668644
14251757 17 18271807990323183968
14251757 5 18266478636268092492
14931854 50 18335422374505331406
15297060 5 17770492045997289146
18336668 15 17897418654869327650
19591789 44 18338517555492752669
19930381 70 18271818920672574511
20465049 17 18335986462519590227
21141583 151 18341898527931173260
3027735 51 18057342599559843870
474144 1 17970622987837207914
5282940 2 17971757662399263154
57091435 65 18336248077155990138
6287921 2 17045977521833775090
7226269 152 18409163334104649860
7399639 24 16830374870785008354
81228 2 17325482701856415451

> <PUBCHEM_SHAPE_MULTIPOLES>
501.16
8.67
5.05
1.82
4.92
1.65
0.66
-1.64
-3.94
0.25
1.76
1.37
-0.69
-0.53

> <PUBCHEM_SHAPE_SELFOVERLAP>
1030.632

> <PUBCHEM_SHAPE_VOLUME>
285.1

> <PUBCHEM_COORDINATE_TYPE>
2
5
10

$$$$
