5318701
  -OEChem-02172602403D

 42 44  0     1  0  0  0  0  0999 V2000
    3.6178   -1.1022    1.1835 O   0  0  0  0  0  0  0  0  0  0  0  0
   -1.1865   -0.4065   -0.2485 C   0  0  1  0  0  0  0  0  0  0  0  0
   -0.6079    1.0291   -0.3960 C   0  0  2  0  0  0  0  0  0  0  0  0
    0.9568    1.1571   -0.3509 C   0  0  0  0  0  0  0  0  0  0  0  0
    0.8415   -1.3506    0.4521 C   0  0  2  0  0  0  0  0  0  0  0  0
   -0.5740   -1.1151    0.9632 C   0  0  0  0  0  0  0  0  0  0  0  0
   -2.6934   -0.1220   -0.1531 C   0  0  2  0  0  0  0  0  0  0  0  0
    1.6138   -0.0052    0.4850 C   0  0  1  0  0  0  0  0  0  0  0  0
   -0.7617   -1.3291   -1.3984 C   0  0  0  0  0  0  0  0  0  0  0  0
    0.5815   -1.9252   -0.9477 C   0  0  0  0  0  0  0  0  0  0  0  0
   -1.4030    1.8009    0.6725 C   0  0  0  0  0  0  0  0  0  0  0  0
   -2.7836    1.1359    0.7252 C   0  0  0  0  0  0  0  0  0  0  0  0
    1.4849    1.2095   -1.8111 C   0  0  0  0  0  0  0  0  0  0  0  0
    1.3822    2.5165    0.2649 C   0  0  0  0  0  0  0  0  0  0  0  0
    3.1017   -0.2411    0.1894 C   0  0  0  0  0  0  0  0  0  0  0  0
   -3.5702   -1.2518    0.3699 C   0  0  0  0  0  0  0  0  0  0  0  0
   -0.9484    1.4303   -1.3633 H   0  0  0  0  0  0  0  0  0  0  0  0
    1.3443   -2.0932    1.0814 H   0  0  0  0  0  0  0  0  0  0  0  0
   -1.0635   -2.0767    1.1608 H   0  0  0  0  0  0  0  0  0  0  0  0
   -0.6012   -0.5362    1.8910 H   0  0  0  0  0  0  0  0  0  0  0  0
   -3.0579    0.1400   -1.1568 H   0  0  0  0  0  0  0  0  0  0  0  0
    1.5634    0.3089    1.5397 H   0  0  0  0  0  0  0  0  0  0  0  0
   -0.6815   -0.8052   -2.3554 H   0  0  0  0  0  0  0  0  0  0  0  0
   -1.4821   -2.1426   -1.5430 H   0  0  0  0  0  0  0  0  0  0  0  0
    0.4758   -3.0156   -0.8812 H   0  0  0  0  0  0  0  0  0  0  0  0
    1.3901   -1.7393   -1.6574 H   0  0  0  0  0  0  0  0  0  0  0  0
   -1.4887    2.8640    0.4243 H   0  0  0  0  0  0  0  0  0  0  0  0
   -0.9331    1.7294    1.6595 H   0  0  0  0  0  0  0  0  0  0  0  0
   -3.0389    0.8968    1.7640 H   0  0  0  0  0  0  0  0  0  0  0  0
   -3.5597    1.8108    0.3476 H   0  0  0  0  0  0  0  0  0  0  0  0
    1.2888    0.2966   -2.3724 H   0  0  0  0  0  0  0  0  0  0  0  0
    1.0147    2.0317   -2.3647 H   0  0  0  0  0  0  0  0  0  0  0  0
    2.5646    1.3907   -1.8488 H   0  0  0  0  0  0  0  0  0  0  0  0
    1.1337    2.5804    1.3291 H   0  0  0  0  0  0  0  0  0  0  0  0
    2.4633    2.6747    0.1821 H   0  0  0  0  0  0  0  0  0  0  0  0
    0.8923    3.3527   -0.2471 H   0  0  0  0  0  0  0  0  0  0  0  0
    3.6767    0.6889    0.2205 H   0  0  0  0  0  0  0  0  0  0  0  0
    3.2630   -0.7105   -0.7846 H   0  0  0  0  0  0  0  0  0  0  0  0
   -3.4661   -2.1506   -0.2451 H   0  0  0  0  0  0  0  0  0  0  0  0
   -3.3263   -1.5144    1.4041 H   0  0  0  0  0  0  0  0  0  0  0  0
   -4.6241   -0.9539    0.3486 H   0  0  0  0  0  0  0  0  0  0  0  0
    3.5460   -0.6469    2.0397 H   0  0  0  0  0  0  0  0  0  0  0  0
  1 15  1  0  0  0  0
  1 42  1  0  0  0  0
  2  3  1  0  0  0  0
  2  6  1  0  0  0  0
  2  7  1  0  0  0  0
  2  9  1  0  0  0  0
  3  4  1  0  0  0  0
  3 11  1  0  0  0  0
  3 17  1  0  0  0  0
  4  8  1  0  0  0  0
  4 13  1  0  0  0  0
  4 14  1  0  0  0  0
  5  6  1  0  0  0  0
  5  8  1  0  0  0  0
  5 10  1  0  0  0  0
  5 18  1  0  0  0  0
  6 19  1  0  0  0  0
  6 20  1  0  0  0  0
  7 12  1  0  0  0  0
  7 16  1  0  0  0  0
  7 21  1  0  0  0  0
  8 15  1  0  0  0  0
  8 22  1  0  0  0  0
  9 10  1  0  0  0  0
  9 23  1  0  0  0  0
  9 24  1  0  0  0  0
 10 25  1  0  0  0  0
 10 26  1  0  0  0  0
 11 12  1  0  0  0  0
 11 27  1  0  0  0  0
 11 28  1  0  0  0  0
 12 29  1  0  0  0  0
 12 30  1  0  0  0  0
 13 31  1  0  0  0  0
 13 32  1  0  0  0  0
 13 33  1  0  0  0  0
 14 34  1  0  0  0  0
 14 35  1  0  0  0  0
 14 36  1  0  0  0  0
 15 37  1  0  0  0  0
 15 38  1  0  0  0  0
 16 39  1  0  0  0  0
 16 40  1  0  0  0  0
 16 41  1  0  0  0  0
M  END
> <PUBCHEM_COMPOUND_CID>
5318701

> <PUBCHEM_CONFORMER_RMSD>
0.6

> <PUBCHEM_CONFORMER_DIVERSEORDER>
1
7
6
4
5
3
2

> <PUBCHEM_MMFF94_PARTIAL_CHARGES>
3
1 -0.68
15 0.28
42 0.4

> <PUBCHEM_EFFECTIVE_ROTOR_COUNT>
2.6

> <PUBCHEM_PHARMACOPHORE_FEATURES>
5
1 1 acceptor
1 1 donor
3 4 13 14 hydrophobe
5 2 3 7 11 12 rings
8 2 3 4 5 6 8 9 10 rings

> <PUBCHEM_HEAVY_ATOM_COUNT>
16

> <PUBCHEM_ATOM_DEF_STEREO_COUNT>
2

> <PUBCHEM_ATOM_UDEF_STEREO_COUNT>
3

> <PUBCHEM_BOND_DEF_STEREO_COUNT>
0

> <PUBCHEM_BOND_UDEF_STEREO_COUNT>
0

> <PUBCHEM_ISOTOPIC_ATOM_COUNT>
0

> <PUBCHEM_COMPONENT_COUNT>
1

> <PUBCHEM_CACTVS_TAUTO_COUNT>
1

> <PUBCHEM_CONFORMER_ID>
0051282D00000001

> <PUBCHEM_MMFF94_ENERGY>
73.1635

> <PUBCHEM_FEATURE_SELFOVERLAP>
25.448

> <PUBCHEM_SHAPE_FINGERPRINT>
10863032 1 17459485522250745345
10948715 1 11527947876102796859
11132069 177 18339075965359897616
12251169 10 18338804416442978737
12382932 28 18196652895482692096
12423570 1 12147699223006263685
12696612 119 18336273344575088521
13024252 1 16009586842068214626
13132413 78 18411697669319899364
13140716 1 18197776807046640419
13172582 1 18411973642179253114
13299463 15 10447925061874885538
13581323 91 17703787054482359255
144361 1 18052572943334168476
14817 1 11803589097588181038
15076042 46 18340491165605331273
15375462 478 18410568492004577507
15775835 57 18339089296885929021
16945 1 18342464733321884423
20473742 2 16370732577472342236
20511035 2 18190468340308269824
20559304 39 18411706512198106272
20645476 183 17753346540355786452
21501502 16 18261686951403354553
22344851 262 18129935689592534143
2334 1 17909262829845901367
23388829 49 18271232894028241071
23419403 2 17973407079727192900
23463225 33 18407761430212957080
23557571 272 16845576422260848467
2748010 2 17983301421714437263
3286 77 18261388996447296463
430814 3 17389964566084198748
5084963 1 18040994076708280261
53812653 8 18269006438727048141
53812654 25 18271802479431717566
63268167 104 18261386762863972364
7364860 26 18268995461043970408
84936 31 15982558582926196102

> <PUBCHEM_SHAPE_MULTIPOLES>
323.4
4.43
2.26
1.25
0.53
0.61
0.36
-0.7
-1.28
-0.29
0.02
-0.44
-0.13
-0.61

> <PUBCHEM_SHAPE_SELFOVERLAP>
683.42

> <PUBCHEM_SHAPE_VOLUME>
185

> <PUBCHEM_COORDINATE_TYPE>
2
5
10

$$$$
