12314450
  -OEChem-02172602293D

 80 84  0     1  0  0  0  0  0999 V2000
   -3.3643    1.7820    1.4873 O   0  0  0  0  0  0  0  0  0  0  0  0
    6.6985    1.7445    0.6869 O   0  0  0  0  0  0  0  0  0  0  0  0
   -3.7492   -3.2768   -0.4848 O   0  0  0  0  0  0  0  0  0  0  0  0
   -2.6241   -1.9599   -1.9667 O   0  0  0  0  0  0  0  0  0  0  0  0
    0.7550   -0.8388    0.1520 C   0  0  2  0  0  0  0  0  0  0  0  0
    1.4949    0.3873   -0.5005 C   0  0  1  0  0  0  0  0  0  0  0  0
   -0.7000   -0.3083    0.6903 C   0  0  1  0  0  0  0  0  0  0  0  0
    3.0573    0.2352   -0.7790 C   0  0  2  0  0  0  0  0  0  0  0  0
    3.7192   -0.2680    0.5558 C   0  0  1  0  0  0  0  0  0  0  0  0
    1.6045   -1.4420    1.3077 C   0  0  0  0  0  0  0  0  0  0  0  0
   -1.4756    0.3482   -0.4752 C   0  0  0  0  0  0  0  0  0  0  0  0
   -3.0166    0.3647   -0.4989 C   0  0  1  0  0  0  0  0  0  0  0  0
   -3.5917   -0.9752    0.0395 C   0  0  1  0  0  0  0  0  0  0  0  0
    3.0936   -1.6065    0.9985 C   0  0  0  0  0  0  0  0  0  0  0  0
   -1.4772   -1.4825    1.3591 C   0  0  0  0  0  0  0  0  0  0  0  0
    0.6782    0.9471   -1.6884 C   0  0  0  0  0  0  0  0  0  0  0  0
    5.2853   -0.2343    0.6170 C   0  0  0  0  0  0  0  0  0  0  0  0
    3.6354    1.6500   -1.0839 C   0  0  0  0  0  0  0  0  0  0  0  0
   -2.9992   -1.3239    1.4144 C   0  0  0  0  0  0  0  0  0  0  0  0
    0.5560   -1.9828   -0.8948 C   0  0  0  0  0  0  0  0  0  0  0  0
   -3.6930    1.6602    0.1056 C   0  0  1  0  0  0  0  0  0  0  0  0
   -0.8113    0.8865   -1.5195 C   0  0  0  0  0  0  0  0  0  0  0  0
   -0.5399    0.8037    1.7742 C   0  0  0  0  0  0  0  0  0  0  0  0
    3.3672   -0.6760   -1.9926 C   0  0  0  0  0  0  0  0  0  0  0  0
   -5.1327   -0.9714    0.0765 C   0  0  0  0  0  0  0  0  0  0  0  0
   -5.2440    1.5447   -0.0091 C   0  0  1  0  0  0  0  0  0  0  0  0
    5.1564    1.7153   -1.1174 C   0  0  0  0  0  0  0  0  0  0  0  0
    5.7719    1.1446    0.1373 C   0  0  0  0  0  0  0  0  0  0  0  0
   -5.7405    0.2748    0.6972 C   0  0  0  0  0  0  0  0  0  0  0  0
   -3.2536   -2.0957   -0.9281 C   0  0  0  0  0  0  0  0  0  0  0  0
    5.7497   -0.4062    2.0869 C   0  0  0  0  0  0  0  0  0  0  0  0
    5.9944   -1.3169   -0.2082 C   0  0  0  0  0  0  0  0  0  0  0  0
   -3.1853    2.9330   -0.5967 C   0  0  0  0  0  0  0  0  0  0  0  0
   -6.0195    2.7432    0.5575 C   0  0  0  0  0  0  0  0  0  0  0  0
    1.4570    1.1795    0.2608 H   0  0  0  0  0  0  0  0  0  0  0  0
    3.4085    0.4663    1.3185 H   0  0  0  0  0  0  0  0  0  0  0  0
    1.2008   -2.4191    1.6021 H   0  0  0  0  0  0  0  0  0  0  0  0
    1.5479   -0.8266    2.2075 H   0  0  0  0  0  0  0  0  0  0  0  0
   -3.3055    0.3994   -1.5632 H   0  0  0  0  0  0  0  0  0  0  0  0
    3.5676   -1.9710    1.9151 H   0  0  0  0  0  0  0  0  0  0  0  0
    3.2445   -2.3953    0.2572 H   0  0  0  0  0  0  0  0  0  0  0  0
   -1.1080   -1.6337    2.3825 H   0  0  0  0  0  0  0  0  0  0  0  0
   -1.2862   -2.4315    0.8569 H   0  0  0  0  0  0  0  0  0  0  0  0
    0.9037    0.4179   -2.6170 H   0  0  0  0  0  0  0  0  0  0  0  0
    0.9521    1.9957   -1.8536 H   0  0  0  0  0  0  0  0  0  0  0  0
    3.2854    2.3569   -0.3193 H   0  0  0  0  0  0  0  0  0  0  0  0
    3.2543    2.0179   -2.0442 H   0  0  0  0  0  0  0  0  0  0  0  0
   -3.4247   -2.2597    1.8002 H   0  0  0  0  0  0  0  0  0  0  0  0
   -3.2619   -0.5664    2.1588 H   0  0  0  0  0  0  0  0  0  0  0  0
   -0.0537   -1.6850   -1.7494 H   0  0  0  0  0  0  0  0  0  0  0  0
    1.5031   -2.3354   -1.3003 H   0  0  0  0  0  0  0  0  0  0  0  0
    0.0986   -2.8760   -0.4626 H   0  0  0  0  0  0  0  0  0  0  0  0
   -1.3774    1.3210   -2.3409 H   0  0  0  0  0  0  0  0  0  0  0  0
   -0.3746    1.7953    1.3372 H   0  0  0  0  0  0  0  0  0  0  0  0
   -1.4238    0.8778    2.4122 H   0  0  0  0  0  0  0  0  0  0  0  0
    0.2824    0.6226    2.4666 H   0  0  0  0  0  0  0  0  0  0  0  0
    3.4386   -1.7320   -1.7299 H   0  0  0  0  0  0  0  0  0  0  0  0
    2.6240   -0.5912   -2.7868 H   0  0  0  0  0  0  0  0  0  0  0  0
    4.3134   -0.4261   -2.4766 H   0  0  0  0  0  0  0  0  0  0  0  0
   -5.5129   -1.8454    0.6218 H   0  0  0  0  0  0  0  0  0  0  0  0
   -5.5285   -1.0649   -0.9454 H   0  0  0  0  0  0  0  0  0  0  0  0
   -5.5047    1.4697   -1.0742 H   0  0  0  0  0  0  0  0  0  0  0  0
    5.4610    2.7652   -1.2025 H   0  0  0  0  0  0  0  0  0  0  0  0
    5.5789    1.1949   -1.9808 H   0  0  0  0  0  0  0  0  0  0  0  0
   -6.8325    0.2057    0.6142 H   0  0  0  0  0  0  0  0  0  0  0  0
   -5.5146    0.3120    1.7696 H   0  0  0  0  0  0  0  0  0  0  0  0
    5.2686    0.3276    2.7436 H   0  0  0  0  0  0  0  0  0  0  0  0
    5.5337   -1.4063    2.4741 H   0  0  0  0  0  0  0  0  0  0  0  0
    6.8327   -0.2630    2.1857 H   0  0  0  0  0  0  0  0  0  0  0  0
    5.6312   -2.3192    0.0392 H   0  0  0  0  0  0  0  0  0  0  0  0
    5.8925   -1.1704   -1.2839 H   0  0  0  0  0  0  0  0  0  0  0  0
    7.0741   -1.3055   -0.0125 H   0  0  0  0  0  0  0  0  0  0  0  0
   -2.1093    3.0693   -0.4479 H   0  0  0  0  0  0  0  0  0  0  0  0
   -3.3978    2.9124   -1.6702 H   0  0  0  0  0  0  0  0  0  0  0  0
   -3.6335    3.8375   -0.1733 H   0  0  0  0  0  0  0  0  0  0  0  0
   -5.7932    3.6642    0.0134 H   0  0  0  0  0  0  0  0  0  0  0  0
   -7.0990    2.5800    0.4611 H   0  0  0  0  0  0  0  0  0  0  0  0
   -5.8058    2.9047    1.6186 H   0  0  0  0  0  0  0  0  0  0  0  0
   -3.6351    2.6617    1.7980 H   0  0  0  0  0  0  0  0  0  0  0  0
   -3.5404   -4.0141   -1.0970 H   0  0  0  0  0  0  0  0  0  0  0  0
  1 21  1  0  0  0  0
  1 79  1  0  0  0  0
  2 28  2  0  0  0  0
  3 30  1  0  0  0  0
  3 80  1  0  0  0  0
  4 30  2  0  0  0  0
  5  6  1  0  0  0  0
  5  7  1  0  0  0  0
  5 10  1  0  0  0  0
  5 20  1  0  0  0  0
  6  8  1  0  0  0  0
  6 16  1  0  0  0  0
  6 35  1  0  0  0  0
  7 11  1  0  0  0  0
  7 15  1  0  0  0  0
  7 23  1  0  0  0  0
  8  9  1  0  0  0  0
  8 18  1  0  0  0  0
  8 24  1  0  0  0  0
  9 14  1  0  0  0  0
  9 17  1  0  0  0  0
  9 36  1  0  0  0  0
 10 14  1  0  0  0  0
 10 37  1  0  0  0  0
 10 38  1  0  0  0  0
 11 12  1  0  0  0  0
 11 22  2  0  0  0  0
 12 13  1  0  0  0  0
 12 21  1  0  0  0  0
 12 39  1  0  0  0  0
 13 19  1  0  0  0  0
 13 25  1  0  0  0  0
 13 30  1  0  0  0  0
 14 40  1  0  0  0  0
 14 41  1  0  0  0  0
 15 19  1  0  0  0  0
 15 42  1  0  0  0  0
 15 43  1  0  0  0  0
 16 22  1  0  0  0  0
 16 44  1  0  0  0  0
 16 45  1  0  0  0  0
 17 28  1  0  0  0  0
 17 31  1  0  0  0  0
 17 32  1  0  0  0  0
 18 27  1  0  0  0  0
 18 46  1  0  0  0  0
 18 47  1  0  0  0  0
 19 48  1  0  0  0  0
 19 49  1  0  0  0  0
 20 50  1  0  0  0  0
 20 51  1  0  0  0  0
 20 52  1  0  0  0  0
 21 26  1  0  0  0  0
 21 33  1  0  0  0  0
 22 53  1  0  0  0  0
 23 54  1  0  0  0  0
 23 55  1  0  0  0  0
 23 56  1  0  0  0  0
 24 57  1  0  0  0  0
 24 58  1  0  0  0  0
 24 59  1  0  0  0  0
 25 29  1  0  0  0  0
 25 60  1  0  0  0  0
 25 61  1  0  0  0  0
 26 29  1  0  0  0  0
 26 34  1  0  0  0  0
 26 62  1  0  0  0  0
 27 28  1  0  0  0  0
 27 63  1  0  0  0  0
 27 64  1  0  0  0  0
 29 65  1  0  0  0  0
 29 66  1  0  0  0  0
 31 67  1  0  0  0  0
 31 68  1  0  0  0  0
 31 69  1  0  0  0  0
 32 70  1  0  0  0  0
 32 71  1  0  0  0  0
 32 72  1  0  0  0  0
 33 73  1  0  0  0  0
 33 74  1  0  0  0  0
 33 75  1  0  0  0  0
 34 76  1  0  0  0  0
 34 77  1  0  0  0  0
 34 78  1  0  0  0  0
M  END
> <PUBCHEM_COMPOUND_CID>
12314450

> <PUBCHEM_CONFORMER_RMSD>
0.8

> <PUBCHEM_CONFORMER_DIVERSEORDER>
1

> <PUBCHEM_MMFF94_PARTIAL_CHARGES>
18
1 -0.68
11 -0.28
12 0.14
13 0.06
16 0.14
17 0.06
2 -0.57
21 0.28
22 -0.29
27 0.06
28 0.45
3 -0.65
30 0.66
4 -0.57
53 0.15
7 0.14
79 0.4
80 0.5

> <PUBCHEM_EFFECTIVE_ROTOR_COUNT>
3.4

> <PUBCHEM_PHARMACOPHORE_FEATURES>
12
1 1 acceptor
1 1 donor
1 2 acceptor
1 3 acceptor
1 4 acceptor
3 17 31 32 hydrophobe
3 3 4 30 anion
6 12 13 21 25 26 29 rings
6 5 6 7 11 16 22 rings
6 5 6 8 9 10 14 rings
6 7 11 12 13 15 19 rings
6 8 9 17 18 27 28 rings

> <PUBCHEM_HEAVY_ATOM_COUNT>
34

> <PUBCHEM_ATOM_DEF_STEREO_COUNT>
9

> <PUBCHEM_ATOM_UDEF_STEREO_COUNT>
0

> <PUBCHEM_BOND_DEF_STEREO_COUNT>
0

> <PUBCHEM_BOND_UDEF_STEREO_COUNT>
0

> <PUBCHEM_ISOTOPIC_ATOM_COUNT>
0

> <PUBCHEM_COMPONENT_COUNT>
1

> <PUBCHEM_CACTVS_TAUTO_COUNT>
2

> <PUBCHEM_CONFORMER_ID>
00BBE75200000001

> <PUBCHEM_MMFF94_ENERGY>
151.5835

> <PUBCHEM_FEATURE_SELFOVERLAP>
61.029

> <PUBCHEM_SHAPE_FINGERPRINT>
10 15 18333456430224034537
10906281 52 17531263754868609914
12107183 9 17756698638008501504
12166972 35 16443348697589322076
12236239 1 18409166614716073466
12422481 6 17894907370000185508
12596602 18 18412263926134200056
12616971 3 18113616789790008758
12633257 1 16805329911338021390
12788726 201 18339641256894051371
13224815 77 18186802495590221782
13533116 47 16660637411455130314
13583140 156 17203603796195959054
13782708 43 17346311660991556455
14068700 675 17984127430569025335
14341114 328 18408885140024264324
14394314 77 18260833653309244197
144659 39 18341324509467086151
14840074 17 17240488009187872694
14849402 71 18115590482541616620
14856354 85 18342175622004475031
14955137 171 11025800907308263362
15131766 46 14998573990626666815
15183329 4 17821728342668623190
15484559 13 15297127320225914911
15788980 27 18408888447080503898
15840311 113 18189622627568898853
17349148 13 17385719214498172134
17980427 23 18260550043131485405
19319366 153 18188767241597326691
19377110 9 18187361051681219168
20511986 3 18334847312295696281
21033648 144 17168705370440023406
21033648 29 15985098587507838266
21033650 10 18266484043231244276
21130935 74 18187363220925138474
21236236 1 18408322202786692941
21424621 283 17702394944757043705
23522609 53 17460339688958607068
23559900 14 17987529117286210238
23569914 2 17551741024923414504
23569943 247 17242439522395620202
24771293 8 18188485904640110132
32027 91 17700991946176490718
34797466 226 17775013426704849028
3633792 109 17749373864049909279
3680242 22 17676485017398347392
4073 2 17895482518046018586
5104073 3 17822294612784849656
86090 222 14563094633687360496
9849439 229 17411636696805180145

> <PUBCHEM_SHAPE_MULTIPOLES>
676.23
14.9
2.68
1.69
8.09
0.16
-0.05
4.99
3.15
-2.61
-0.31
0.71
-0.26
-1.37

> <PUBCHEM_SHAPE_SELFOVERLAP>
1446.3

> <PUBCHEM_SHAPE_VOLUME>
370

> <PUBCHEM_COORDINATE_TYPE>
2
5
10

$$$$
