443669
  -OEChem-02172602253D

 41 45  0     1  0  0  0  0  0999 V2000
   -3.8616    0.7822    2.3155 O   0  0  0  0  0  0  0  0  0  0  0  0
    2.6525   -2.1343    0.3643 O   0  0  0  0  0  0  0  0  0  0  0  0
    3.0763    2.4519   -0.2199 O   0  0  0  0  0  0  0  0  0  0  0  0
    4.1155    0.3250    0.2265 O   0  0  0  0  0  0  0  0  0  0  0  0
   -1.6150   -1.9547   -0.3766 N   0  0  1  0  0  0  0  0  0  0  0  0
   -1.4912    0.3832   -0.6070 C   0  0  2  0  0  0  0  0  0  0  0  0
   -2.1017   -0.7240    0.2880 C   0  0  1  0  0  0  0  0  0  0  0  0
   -1.7196   -0.1843   -2.0235 C   0  0  0  0  0  0  0  0  0  0  0  0
   -1.7648   -1.7024   -1.8272 C   0  0  0  0  0  0  0  0  0  0  0  0
    0.0268    0.3934   -0.3488 C   0  0  0  0  0  0  0  0  0  0  0  0
   -3.6358   -0.6535    0.3708 C   0  0  0  0  0  0  0  0  0  0  0  0
   -0.1840   -2.1293   -0.0249 C   0  0  0  0  0  0  0  0  0  0  0  0
   -2.1990    1.7057   -0.4277 C   0  0  0  0  0  0  0  0  0  0  0  0
    0.6557   -0.8660   -0.1014 C   0  0  0  0  0  0  0  0  0  0  0  0
   -4.0760    0.7128    0.9089 C   0  0  2  0  0  0  0  0  0  0  0  0
   -3.3337    1.8524    0.2738 C   0  0  0  0  0  0  0  0  0  0  0  0
    0.8153    1.5532   -0.4089 C   0  0  0  0  0  0  0  0  0  0  0  0
    2.0399   -0.9496    0.1089 C   0  0  0  0  0  0  0  0  0  0  0  0
    2.1757    1.4303   -0.2002 C   0  0  0  0  0  0  0  0  0  0  0  0
    2.7701    0.2171    0.0522 C   0  0  0  0  0  0  0  0  0  0  0  0
    4.3025    1.7441    0.0535 C   0  0  0  0  0  0  0  0  0  0  0  0
    3.3520   -2.2532    1.6037 C   0  0  0  0  0  0  0  0  0  0  0  0
   -1.7282   -0.6697    1.3222 H   0  0  0  0  0  0  0  0  0  0  0  0
   -0.9300    0.1034   -2.7281 H   0  0  0  0  0  0  0  0  0  0  0  0
   -2.6743    0.1521   -2.4478 H   0  0  0  0  0  0  0  0  0  0  0  0
   -2.7364   -2.0879   -2.1585 H   0  0  0  0  0  0  0  0  0  0  0  0
   -1.0092   -2.2166   -2.4324 H   0  0  0  0  0  0  0  0  0  0  0  0
   -4.0003   -1.4566    1.0233 H   0  0  0  0  0  0  0  0  0  0  0  0
   -4.0921   -0.8088   -0.6144 H   0  0  0  0  0  0  0  0  0  0  0  0
    0.2536   -2.9115   -0.6578 H   0  0  0  0  0  0  0  0  0  0  0  0
   -0.1390   -2.5016    1.0071 H   0  0  0  0  0  0  0  0  0  0  0  0
   -1.7877    2.5893   -0.9077 H   0  0  0  0  0  0  0  0  0  0  0  0
   -5.1497    0.8396    0.7311 H   0  0  0  0  0  0  0  0  0  0  0  0
   -3.7690    2.8438    0.3666 H   0  0  0  0  0  0  0  0  0  0  0  0
    0.3958    2.5297   -0.6187 H   0  0  0  0  0  0  0  0  0  0  0  0
   -4.3733    0.0645    2.7261 H   0  0  0  0  0  0  0  0  0  0  0  0
    4.7478    2.1534    0.9677 H   0  0  0  0  0  0  0  0  0  0  0  0
    4.9956    1.9079   -0.7796 H   0  0  0  0  0  0  0  0  0  0  0  0
    4.3891   -1.9274    1.4840 H   0  0  0  0  0  0  0  0  0  0  0  0
    3.3570   -3.3095    1.8877 H   0  0  0  0  0  0  0  0  0  0  0  0
    2.8622   -1.6847    2.4019 H   0  0  0  0  0  0  0  0  0  0  0  0
  1 15  1  0  0  0  0
  1 36  1  0  0  0  0
  2 18  1  0  0  0  0
  2 22  1  0  0  0  0
  3 19  1  0  0  0  0
  3 21  1  0  0  0  0
  4 20  1  0  0  0  0
  4 21  1  0  0  0  0
  5  7  1  0  0  0  0
  5  9  1  0  0  0  0
  5 12  1  0  0  0  0
  6  7  1  0  0  0  0
  6  8  1  0  0  0  0
  6 10  1  0  0  0  0
  6 13  1  0  0  0  0
  7 11  1  0  0  0  0
  7 23  1  0  0  0  0
  8  9  1  0  0  0  0
  8 24  1  0  0  0  0
  8 25  1  0  0  0  0
  9 26  1  0  0  0  0
  9 27  1  0  0  0  0
 10 14  1  0  0  0  0
 10 17  2  0  0  0  0
 11 15  1  0  0  0  0
 11 28  1  0  0  0  0
 11 29  1  0  0  0  0
 12 14  1  0  0  0  0
 12 30  1  0  0  0  0
 12 31  1  0  0  0  0
 13 16  2  0  0  0  0
 13 32  1  0  0  0  0
 14 18  2  0  0  0  0
 15 16  1  0  0  0  0
 15 33  1  0  0  0  0
 16 34  1  0  0  0  0
 17 19  1  0  0  0  0
 17 35  1  0  0  0  0
 18 20  1  0  0  0  0
 19 20  2  0  0  0  0
 21 37  1  0  0  0  0
 21 38  1  0  0  0  0
 22 39  1  0  0  0  0
 22 40  1  0  0  0  0
 22 41  1  0  0  0  0
M  END
> <PUBCHEM_COMPOUND_CID>
443669

> <PUBCHEM_CONFORMER_RMSD>
0.6

> <PUBCHEM_CONFORMER_DIVERSEORDER>
1

> <PUBCHEM_MMFF94_PARTIAL_CHARGES>
24
1 -0.68
10 -0.14
12 0.41
13 -0.29
14 -0.14
15 0.42
16 -0.29
17 -0.15
18 0.08
19 0.08
2 -0.36
20 0.08
21 0.56
22 0.28
3 -0.36
32 0.15
34 0.15
35 0.15
36 0.4
4 -0.36
5 -0.81
6 0.28
7 0.27
9 0.27

> <PUBCHEM_EFFECTIVE_ROTOR_COUNT>
2.6

> <PUBCHEM_PHARMACOPHORE_FEATURES>
10
1 1 acceptor
1 1 donor
1 2 acceptor
1 3 acceptor
1 4 acceptor
1 5 cation
5 3 4 19 20 21 rings
6 10 14 17 18 19 20 rings
6 6 7 11 13 15 16 rings
8 5 6 7 8 9 10 12 14 rings

> <PUBCHEM_HEAVY_ATOM_COUNT>
22

> <PUBCHEM_ATOM_DEF_STEREO_COUNT>
3

> <PUBCHEM_ATOM_UDEF_STEREO_COUNT>
0

> <PUBCHEM_BOND_DEF_STEREO_COUNT>
0

> <PUBCHEM_BOND_UDEF_STEREO_COUNT>
0

> <PUBCHEM_ISOTOPIC_ATOM_COUNT>
0

> <PUBCHEM_COMPONENT_COUNT>
1

> <PUBCHEM_CACTVS_TAUTO_COUNT>
1

> <PUBCHEM_CONFORMER_ID>
0006C51500000001

> <PUBCHEM_MMFF94_ENERGY>
75.4631

> <PUBCHEM_FEATURE_SELFOVERLAP>
50.942

> <PUBCHEM_SHAPE_FINGERPRINT>
10382601 240 18333452054063374760
10863032 1 18409452479365430587
10948715 1 18201446869617453157
10967382 1 18409163312039177676
10980938 120 18410860949270465388
11578080 2 16951393326828854526
11640471 11 18059862761318888017
12173636 292 18272366533313118519
12390115 104 17979370964526181348
12403814 3 17822003255003981605
12507560 40 18114466661008002621
12553582 1 18047457947229815466
12633257 1 18192443982778955275
12644460 14 18261396620288547410
12788726 201 17773863384982456711
12892183 10 18114759182640248249
13140716 1 18263918852259017592
13224815 77 18113330929630563892
13583140 156 17750509590208707563
14178342 30 18193546998904872064
14223421 5 18260550034594336667
14790565 3 18190190168742516388
14955137 171 18121221983192628650
15209294 21 18271526489265744824
15309172 13 18335139816880233239
15442244 35 18337665309385093562
15475509 35 16878514401551785883
15534591 1 18131072683568525661
16945 1 18263912405750535190
20739085 24 18262530169426785132
21501502 16 18340194267501443422
21524375 3 18131074831379227711
21731228 192 18342470222574853827
23184049 59 18338235946944813868
2334 1 18336535075792919966
23557571 272 15338536358330916475
23559900 14 17489590074280642192
25147074 1 18342442768680090110
2748010 2 18190167993319256996
312423 11 18411974788925511118
458136 41 18113907104247167068
474 4 18188771794109665948
5104073 3 18262523593937519817
6049 1 17168417156453916350
7097593 13 18408600344816073354
7615 1 18128795564880744270
7832392 63 18413668015536401252
90525 40 18202277005070306343

> <PUBCHEM_SHAPE_MULTIPOLES>
424.29
7.5
2.57
1.38
1.88
0.28
-0.04
-2.32
-2.88
1.45
-0.11
-1.24
0.36
-1.37

> <PUBCHEM_SHAPE_SELFOVERLAP>
956.543

> <PUBCHEM_SHAPE_VOLUME>
224

> <PUBCHEM_COORDINATE_TYPE>
2
5
10

$$$$
