131752310
  -OEChem-02172602533D

 71 73  0     1  0  0  0  0  0999 V2000
    1.1318    1.7578    1.0722 O   0  0  0  0  0  0  0  0  0  0  0  0
    2.7312    0.9251   -0.4625 O   0  0  0  0  0  0  0  0  0  0  0  0
    2.3908   -0.7027    1.2271 O   0  0  0  0  0  0  0  0  0  0  0  0
    0.4313    1.3214   -1.8253 O   0  0  0  0  0  0  0  0  0  0  0  0
    0.1338    4.5497   -0.2883 O   0  0  0  0  0  0  0  0  0  0  0  0
    5.5063    0.5632   -0.2553 O   0  0  0  0  0  0  0  0  0  0  0  0
    5.7479   -2.3038   -0.5663 O   0  0  0  0  0  0  0  0  0  0  0  0
    3.1975   -3.5705   -0.9440 O   0  0  0  0  0  0  0  0  0  0  0  0
    3.6924    3.5067   -0.8244 O   0  0  0  0  0  0  0  0  0  0  0  0
   -0.1622   -2.1246    0.9177 O   0  0  0  0  0  0  0  0  0  0  0  0
   -1.0984    1.0467    2.5732 O   0  0  0  0  0  0  0  0  0  0  0  0
   -6.6025   -0.6052   -1.1523 O   0  0  0  0  0  0  0  0  0  0  0  0
   -0.5233   -3.2824   -1.0545 O   0  0  0  0  0  0  0  0  0  0  0  0
    1.9473    2.0481   -0.0726 C   0  0  1  0  0  0  0  0  0  0  0  0
    0.9697    2.4690   -1.1699 C   0  0  2  0  0  0  0  0  0  0  0  0
   -0.1446    3.1580   -0.4044 C   0  0  1  0  0  0  0  0  0  0  0  0
   -0.0872    2.5243    0.9885 C   0  0  1  0  0  0  0  0  0  0  0  0
    3.2869    0.2617    0.6714 C   0  0  1  0  0  0  0  0  0  0  0  0
    4.6429   -0.3790    0.3708 C   0  0  1  0  0  0  0  0  0  0  0  0
    4.5000   -1.6078   -0.5251 C   0  0  2  0  0  0  0  0  0  0  0  0
    3.4384   -2.5588    0.0311 C   0  0  1  0  0  0  0  0  0  0  0  0
    2.1383   -1.8104    0.3551 C   0  0  1  0  0  0  0  0  0  0  0  0
    2.9293    3.1532    0.3165 C   0  0  0  0  0  0  0  0  0  0  0  0
   -4.5332   -0.2134   -0.0003 C   0  0  1  0  0  0  0  0  0  0  0  0
   -1.2509    1.5857    1.2706 C   0  0  0  0  0  0  0  0  0  0  0  0
   -5.9581    0.2819   -0.2368 C   0  0  0  0  0  0  0  0  0  0  0  0
   -4.5313   -1.5904    0.6765 C   0  0  0  0  0  0  0  0  0  0  0  0
    1.1209   -2.7065    1.0564 C   0  0  0  0  0  0  0  0  0  0  0  0
   -3.7458   -0.2600   -1.3224 C   0  0  0  0  0  0  0  0  0  0  0  0
   -3.1026   -2.0640    0.9650 C   0  0  0  0  0  0  0  0  0  0  0  0
   -2.1683   -1.8176   -0.1801 C   0  0  0  0  0  0  0  0  0  0  0  0
   -2.4539   -1.0194   -1.2186 C   0  0  0  0  0  0  0  0  0  0  0  0
   -5.9469    1.6704   -0.8734 C   0  0  0  0  0  0  0  0  0  0  0  0
   -6.7545    0.2961    1.0676 C   0  0  0  0  0  0  0  0  0  0  0  0
   -0.8731   -2.5022   -0.1831 C   0  0  0  0  0  0  0  0  0  0  0  0
    1.4353    3.0957   -1.9365 H   0  0  0  0  0  0  0  0  0  0  0  0
   -1.1264    3.0541   -0.8781 H   0  0  0  0  0  0  0  0  0  0  0  0
   -0.0333    3.2809    1.7805 H   0  0  0  0  0  0  0  0  0  0  0  0
    3.4800    0.9649    1.4853 H   0  0  0  0  0  0  0  0  0  0  0  0
    5.1186   -0.6863    1.3112 H   0  0  0  0  0  0  0  0  0  0  0  0
    4.2751   -1.3168   -1.5578 H   0  0  0  0  0  0  0  0  0  0  0  0
    3.8225   -3.0562    0.9301 H   0  0  0  0  0  0  0  0  0  0  0  0
    1.6917   -1.4280   -0.5723 H   0  0  0  0  0  0  0  0  0  0  0  0
    3.6245    2.8807    1.1134 H   0  0  0  0  0  0  0  0  0  0  0  0
    2.4086    4.0464    0.6757 H   0  0  0  0  0  0  0  0  0  0  0  0
   -4.0257    0.4885    0.6765 H   0  0  0  0  0  0  0  0  0  0  0  0
   -1.2444    0.7551    0.5654 H   0  0  0  0  0  0  0  0  0  0  0  0
   -2.2065    2.1150    1.2136 H   0  0  0  0  0  0  0  0  0  0  0  0
   -5.0313   -2.3296    0.0373 H   0  0  0  0  0  0  0  0  0  0  0  0
   -5.0642   -1.5802    1.6323 H   0  0  0  0  0  0  0  0  0  0  0  0
    1.3339   -2.7697    2.1294 H   0  0  0  0  0  0  0  0  0  0  0  0
    1.1262   -3.7305    0.6655 H   0  0  0  0  0  0  0  0  0  0  0  0
   -3.4984    0.7610   -1.6362 H   0  0  0  0  0  0  0  0  0  0  0  0
   -4.3308   -0.7150   -2.1299 H   0  0  0  0  0  0  0  0  0  0  0  0
   -3.1276   -3.1328    1.2087 H   0  0  0  0  0  0  0  0  0  0  0  0
   -2.7224   -1.5419    1.8513 H   0  0  0  0  0  0  0  0  0  0  0  0
   -0.2168    1.6355   -2.4787 H   0  0  0  0  0  0  0  0  0  0  0  0
   -0.5814    4.9470    0.2374 H   0  0  0  0  0  0  0  0  0  0  0  0
   -1.7454   -0.8956   -2.0336 H   0  0  0  0  0  0  0  0  0  0  0  0
    5.5784    1.3323    0.3353 H   0  0  0  0  0  0  0  0  0  0  0  0
    5.9792   -2.5659    0.3411 H   0  0  0  0  0  0  0  0  0  0  0  0
    2.8190   -3.1443   -1.7318 H   0  0  0  0  0  0  0  0  0  0  0  0
   -5.3652    2.3837   -0.2803 H   0  0  0  0  0  0  0  0  0  0  0  0
   -5.5558    1.6537   -1.8961 H   0  0  0  0  0  0  0  0  0  0  0  0
   -6.9676    2.0619   -0.9628 H   0  0  0  0  0  0  0  0  0  0  0  0
   -6.2237    0.8274    1.8642 H   0  0  0  0  0  0  0  0  0  0  0  0
   -7.0098   -0.7122    1.4093 H   0  0  0  0  0  0  0  0  0  0  0  0
   -7.7200    0.7958    0.9207 H   0  0  0  0  0  0  0  0  0  0  0  0
    4.2940    4.2224   -0.5575 H   0  0  0  0  0  0  0  0  0  0  0  0
   -1.8650    0.4716    2.7366 H   0  0  0  0  0  0  0  0  0  0  0  0
   -7.5123   -0.2890   -1.2869 H   0  0  0  0  0  0  0  0  0  0  0  0
  1 14  1  0  0  0  0
  1 17  1  0  0  0  0
  2 14  1  0  0  0  0
  2 18  1  0  0  0  0
  3 18  1  0  0  0  0
  3 22  1  0  0  0  0
  4 15  1  0  0  0  0
  4 57  1  0  0  0  0
  5 16  1  0  0  0  0
  5 58  1  0  0  0  0
  6 19  1  0  0  0  0
  6 60  1  0  0  0  0
  7 20  1  0  0  0  0
  7 61  1  0  0  0  0
  8 21  1  0  0  0  0
  8 62  1  0  0  0  0
  9 23  1  0  0  0  0
  9 69  1  0  0  0  0
 10 28  1  0  0  0  0
 10 35  1  0  0  0  0
 11 25  1  0  0  0  0
 11 70  1  0  0  0  0
 12 26  1  0  0  0  0
 12 71  1  0  0  0  0
 13 35  2  0  0  0  0
 14 15  1  0  0  0  0
 14 23  1  0  0  0  0
 15 16  1  0  0  0  0
 15 36  1  0  0  0  0
 16 17  1  0  0  0  0
 16 37  1  0  0  0  0
 17 25  1  0  0  0  0
 17 38  1  0  0  0  0
 18 19  1  0  0  0  0
 18 39  1  0  0  0  0
 19 20  1  0  0  0  0
 19 40  1  0  0  0  0
 20 21  1  0  0  0  0
 20 41  1  0  0  0  0
 21 22  1  0  0  0  0
 21 42  1  0  0  0  0
 22 28  1  0  0  0  0
 22 43  1  0  0  0  0
 23 44  1  0  0  0  0
 23 45  1  0  0  0  0
 24 26  1  0  0  0  0
 24 27  1  0  0  0  0
 24 29  1  0  0  0  0
 24 46  1  0  0  0  0
 25 47  1  0  0  0  0
 25 48  1  0  0  0  0
 26 33  1  0  0  0  0
 26 34  1  0  0  0  0
 27 30  1  0  0  0  0
 27 49  1  0  0  0  0
 27 50  1  0  0  0  0
 28 51  1  0  0  0  0
 28 52  1  0  0  0  0
 29 32  1  0  0  0  0
 29 53  1  0  0  0  0
 29 54  1  0  0  0  0
 30 31  1  0  0  0  0
 30 55  1  0  0  0  0
 30 56  1  0  0  0  0
 31 32  2  0  0  0  0
 31 35  1  0  0  0  0
 32 59  1  0  0  0  0
 33 63  1  0  0  0  0
 33 64  1  0  0  0  0
 33 65  1  0  0  0  0
 34 66  1  0  0  0  0
 34 67  1  0  0  0  0
 34 68  1  0  0  0  0
M  END
> <PUBCHEM_COMPOUND_CID>
131752310

> <PUBCHEM_CONFORMER_RMSD>
1.2

> <PUBCHEM_CONFORMER_DIVERSEORDER>
2
42
21
32
36
8
38
25
43
26
17
35
5
3
41
13
24
15
14
6
7
30
22
39
27
34
28
12
9
23
45
33
37
4
16
44
18
19
11
40
31
20
1
29
10

> <PUBCHEM_MMFF94_PARTIAL_CHARGES>
40
1 -0.56
10 -0.43
11 -0.68
12 -0.68
13 -0.57
14 0.56
15 0.28
16 0.28
17 0.28
18 0.56
19 0.28
2 -0.56
20 0.28
21 0.28
22 0.28
23 0.28
25 0.28
26 0.28
28 0.28
29 0.14
3 -0.56
30 0.14
31 -0.12
32 -0.29
35 0.71
4 -0.68
5 -0.68
57 0.4
58 0.4
59 0.15
6 -0.68
60 0.4
61 0.4
62 0.4
69 0.4
7 -0.68
70 0.4
71 0.4
8 -0.68
9 -0.68

> <PUBCHEM_EFFECTIVE_ROTOR_COUNT>
12

> <PUBCHEM_PHARMACOPHORE_FEATURES>
24
1 1 acceptor
1 11 acceptor
1 11 donor
1 12 acceptor
1 12 donor
1 13 acceptor
1 2 acceptor
1 3 acceptor
1 4 acceptor
1 4 donor
1 5 acceptor
1 5 donor
1 6 acceptor
1 6 donor
1 7 acceptor
1 7 donor
1 8 acceptor
1 8 donor
1 9 acceptor
1 9 donor
3 26 33 34 hydrophobe
5 1 14 15 16 17 rings
6 24 27 29 30 31 32 rings
6 3 18 19 20 21 22 rings

> <PUBCHEM_HEAVY_ATOM_COUNT>
35

> <PUBCHEM_ATOM_DEF_STEREO_COUNT>
9

> <PUBCHEM_ATOM_UDEF_STEREO_COUNT>
1

> <PUBCHEM_BOND_DEF_STEREO_COUNT>
0

> <PUBCHEM_BOND_UDEF_STEREO_COUNT>
0

> <PUBCHEM_ISOTOPIC_ATOM_COUNT>
0

> <PUBCHEM_COMPONENT_COUNT>
1

> <PUBCHEM_CACTVS_TAUTO_COUNT>
1

> <PUBCHEM_CONFORMER_ID>
07DA617600000002

> <PUBCHEM_MMFF94_ENERGY>
104.0249

> <PUBCHEM_FEATURE_SELFOVERLAP>
121.931

> <PUBCHEM_SHAPE_FINGERPRINT>
10074138 170 15522037840111715643
10439779 11 17907562972206225168
10675989 125 18410294747990540552
11135926 11 18193268813968822436
11421498 54 14201665434562194166
11513181 2 17774447053652125807
11578080 2 13913476939126910470
12156800 1 17696503721966900645
12166972 35 18272649061195308315
12422481 6 18044627966812163880
12788726 201 18190735323970476138
12925494 130 18335135406877332689
13402501 40 18334853888201927879
14020679 6 17894919525185343443
14068700 675 18131346367469384296
14394314 77 18272375239750801097
14464042 87 18131072602117206035
14955137 171 18411142437464939543
15001296 14 18334853956800293209
15081414 286 18411136917930291030
151778 21 18117280478793514965
15210252 30 18186521025240735948
1601671 61 18408880733124113579
16067689 302 18266461091886708015
16087824 20 18338237046789394101
20567600 299 18197775724809450466
23559900 14 18340764935373802929
338550 245 18409169879076172541
3459 83 18341617010279005577
46194498 28 17603586365452883613
463206 1 18408886273768835161
508706 21 17895180109541157951
513532 50 17988929998020768182
5265222 85 17469899134770923620
550186 83 17677031512794422825
6443956 14 18335702771128849220

> <PUBCHEM_SHAPE_MULTIPOLES>
643.98
12.79
4.82
1.41
13.2
2.07
-0.24
-2.55
1.67
-4.27
0.57
0.71
0.19
0.22

> <PUBCHEM_SHAPE_SELFOVERLAP>
1340.228

> <PUBCHEM_SHAPE_VOLUME>
363.2

> <PUBCHEM_COORDINATE_TYPE>
2
5
10

$$$$
