131752307
  -OEChem-02172602533D

 49 51  0     1  0  0  0  0  0999 V2000
    0.8839   -0.5684    1.1532 O   0  0  0  0  0  0  0  0  0  0  0  0
   -1.4569    2.3257   -0.5843 O   0  0  0  0  0  0  0  0  0  0  0  0
    4.8382    1.8231    0.0416 O   0  0  0  0  0  0  0  0  0  0  0  0
    0.6667    3.6193   -1.3021 O   0  0  0  0  0  0  0  0  0  0  0  0
    1.6663   -4.1099   -0.4393 O   0  0  0  0  0  0  0  0  0  0  0  0
   -3.6750    0.4748    2.4025 O   0  0  0  0  0  0  0  0  0  0  0  0
   -6.5698   -1.0865   -1.0468 O   0  0  0  0  0  0  0  0  0  0  0  0
   -1.3633    0.2834    0.7154 C   0  0  1  0  0  0  0  0  0  0  0  0
    3.6466   -0.4285    1.2873 C   0  0  0  0  0  0  0  0  0  0  0  0
    4.2937   -1.4515    0.3356 C   0  0  0  0  0  0  0  0  0  0  0  0
    2.8367    0.6264    0.6019 C   0  0  0  0  0  0  0  0  0  0  0  0
    3.3005   -2.3058   -0.4825 C   0  0  2  0  0  0  0  0  0  0  0  0
    1.4457    0.5256    0.5476 C   0  0  0  0  0  0  0  0  0  0  0  0
    0.6995    1.5301   -0.0762 C   0  0  0  0  0  0  0  0  0  0  0  0
   -0.3989   -0.8984    0.6102 C   0  0  0  0  0  0  0  0  0  0  0  0
   -0.7779    1.4525   -0.0561 C   0  0  0  0  0  0  0  0  0  0  0  0
   -2.7601   -0.0796    0.2575 C   0  0  0  0  0  0  0  0  0  0  0  0
    3.4802    1.7113    0.0059 C   0  0  0  0  0  0  0  0  0  0  0  0
    1.3430    2.6162   -0.6755 C   0  0  0  0  0  0  0  0  0  0  0  0
    2.6067   -3.3936    0.3486 C   0  0  0  0  0  0  0  0  0  0  0  0
    4.0415   -2.9381   -1.6676 C   0  0  0  0  0  0  0  0  0  0  0  0
    2.7352    2.7011   -0.6356 C   0  0  0  0  0  0  0  0  0  0  0  0
   -3.8469    0.0347    1.1245 C   0  0  0  0  0  0  0  0  0  0  0  0
   -2.9537   -0.5323   -1.0477 C   0  0  0  0  0  0  0  0  0  0  0  0
   -5.1273   -0.3038    0.6863 C   0  0  0  0  0  0  0  0  0  0  0  0
   -4.2339   -0.8711   -1.4858 C   0  0  0  0  0  0  0  0  0  0  0  0
   -5.3208   -0.7568   -0.6188 C   0  0  0  0  0  0  0  0  0  0  0  0
   -1.3762    0.6185    1.7610 H   0  0  0  0  0  0  0  0  0  0  0  0
    4.4437    0.0579    1.8661 H   0  0  0  0  0  0  0  0  0  0  0  0
    3.0585   -0.9551    2.0479 H   0  0  0  0  0  0  0  0  0  0  0  0
    4.9555   -0.9103   -0.3528 H   0  0  0  0  0  0  0  0  0  0  0  0
    4.9421   -2.1145    0.9227 H   0  0  0  0  0  0  0  0  0  0  0  0
    2.5304   -1.6656   -0.9273 H   0  0  0  0  0  0  0  0  0  0  0  0
   -0.7798   -1.7493    1.1872 H   0  0  0  0  0  0  0  0  0  0  0  0
   -0.2610   -1.2512   -0.4207 H   0  0  0  0  0  0  0  0  0  0  0  0
    3.3408   -4.1074    0.7384 H   0  0  0  0  0  0  0  0  0  0  0  0
    2.0731   -2.9585    1.1977 H   0  0  0  0  0  0  0  0  0  0  0  0
    4.8295   -3.6171   -1.3242 H   0  0  0  0  0  0  0  0  0  0  0  0
    4.5063   -2.1680   -2.2928 H   0  0  0  0  0  0  0  0  0  0  0  0
    3.3585   -3.5068   -2.3071 H   0  0  0  0  0  0  0  0  0  0  0  0
    3.2346    3.5477   -1.1011 H   0  0  0  0  0  0  0  0  0  0  0  0
   -2.1227   -0.6207   -1.7422 H   0  0  0  0  0  0  0  0  0  0  0  0
   -5.9752   -0.2151    1.3611 H   0  0  0  0  0  0  0  0  0  0  0  0
   -4.3787   -1.2213   -2.5041 H   0  0  0  0  0  0  0  0  0  0  0  0
    5.1031    2.6358   -0.4223 H   0  0  0  0  0  0  0  0  0  0  0  0
   -0.2809    3.4193   -1.3394 H   0  0  0  0  0  0  0  0  0  0  0  0
    1.2618   -4.7801    0.1374 H   0  0  0  0  0  0  0  0  0  0  0  0
   -4.5369    0.4884    2.8528 H   0  0  0  0  0  0  0  0  0  0  0  0
   -7.1999   -0.9471   -0.3191 H   0  0  0  0  0  0  0  0  0  0  0  0
  1 13  1  0  0  0  0
  1 15  1  0  0  0  0
  2 16  2  0  0  0  0
  3 18  1  0  0  0  0
  3 45  1  0  0  0  0
  4 19  1  0  0  0  0
  4 46  1  0  0  0  0
  5 20  1  0  0  0  0
  5 47  1  0  0  0  0
  6 23  1  0  0  0  0
  6 48  1  0  0  0  0
  7 27  1  0  0  0  0
  7 49  1  0  0  0  0
  8 15  1  0  0  0  0
  8 16  1  0  0  0  0
  8 17  1  0  0  0  0
  8 28  1  0  0  0  0
  9 10  1  0  0  0  0
  9 11  1  0  0  0  0
  9 29  1  0  0  0  0
  9 30  1  0  0  0  0
 10 12  1  0  0  0  0
 10 31  1  0  0  0  0
 10 32  1  0  0  0  0
 11 13  2  0  0  0  0
 11 18  1  0  0  0  0
 12 20  1  0  0  0  0
 12 21  1  0  0  0  0
 12 33  1  0  0  0  0
 13 14  1  0  0  0  0
 14 16  1  0  0  0  0
 14 19  2  0  0  0  0
 15 34  1  0  0  0  0
 15 35  1  0  0  0  0
 17 23  2  0  0  0  0
 17 24  1  0  0  0  0
 18 22  2  0  0  0  0
 19 22  1  0  0  0  0
 20 36  1  0  0  0  0
 20 37  1  0  0  0  0
 21 38  1  0  0  0  0
 21 39  1  0  0  0  0
 21 40  1  0  0  0  0
 22 41  1  0  0  0  0
 23 25  1  0  0  0  0
 24 26  2  0  0  0  0
 24 42  1  0  0  0  0
 25 27  2  0  0  0  0
 25 43  1  0  0  0  0
 26 27  1  0  0  0  0
 26 44  1  0  0  0  0
M  END
> <PUBCHEM_COMPOUND_CID>
131752307

> <PUBCHEM_CONFORMER_RMSD>
0.8

> <PUBCHEM_CONFORMER_DIVERSEORDER>
1
163
44
61
218
139
101
180
81
204
39
114
173
147
113
140
148
69
200
145
128
75
191
117
166
83
188
105
154
79
142
78
90
205
195
125
225
161
169
85
208
100
126
198
144
131
210
57
217
207
70
219
209
199
141
121
72
11
222
134
122
94
167
74
106
184
211
151
213
203
51
120
143
146
109
93
43
23
186
95
178
63
214
159
194
124
182
135
102
160
55
196
112
107
176
155
138
164
6
157
48
29
152
108
46
215
133
77
67
190
99
24
192
88
31
52
97
38
216
177
149
12
84
193
201
56
221
87
116
27
165
130
212
132
47
150
129
127
54
9
40
42
119
37
3
162
60
34
170
118
168
189
50
49
156
32
92
206
62
76
96
179
172
183
25
71
174
80
8
58
16
41
65
158
59
171
5
53
185
153
123
66
175
33
104
82
86
22
21
35
89
136
187
30
17
2
137
64
45
28
224
73
20
197
4
19
110
220
10
15
91
13
223
115
26
98
36
103
181
68
18
202
7
14
111

> <PUBCHEM_MMFF94_PARTIAL_CHARGES>
33
1 -0.36
11 -0.14
13 0.08
14 0.09
15 0.28
16 0.42
17 -0.14
18 0.08
19 0.08
2 -0.57
20 0.28
22 -0.15
23 0.08
24 -0.15
25 -0.15
26 -0.15
27 0.08
3 -0.53
4 -0.53
41 0.15
42 0.15
43 0.15
44 0.15
45 0.45
46 0.45
47 0.4
48 0.45
49 0.45
5 -0.68
6 -0.53
7 -0.53
8 0.2
9 0.14

> <PUBCHEM_EFFECTIVE_ROTOR_COUNT>
5.6

> <PUBCHEM_PHARMACOPHORE_FEATURES>
12
1 1 acceptor
1 2 acceptor
1 21 hydrophobe
1 3 donor
1 4 donor
1 5 acceptor
1 5 donor
1 6 donor
1 7 donor
6 1 8 13 14 15 16 rings
6 11 13 14 18 19 22 rings
6 17 23 24 25 26 27 rings

> <PUBCHEM_HEAVY_ATOM_COUNT>
27

> <PUBCHEM_ATOM_DEF_STEREO_COUNT>
0

> <PUBCHEM_ATOM_UDEF_STEREO_COUNT>
2

> <PUBCHEM_BOND_DEF_STEREO_COUNT>
0

> <PUBCHEM_BOND_UDEF_STEREO_COUNT>
0

> <PUBCHEM_ISOTOPIC_ATOM_COUNT>
0

> <PUBCHEM_COMPONENT_COUNT>
1

> <PUBCHEM_CACTVS_TAUTO_COUNT>
465

> <PUBCHEM_CONFORMER_ID>
07DA617300000001

> <PUBCHEM_MMFF94_ENERGY>
75.2739

> <PUBCHEM_FEATURE_SELFOVERLAP>
60.928

> <PUBCHEM_SHAPE_FINGERPRINT>
10906281 52 18042135404618334608
12107183 9 17698740116112631833
12236239 1 18201156642035547993
12422481 6 17916593007875516061
12553582 1 18264215716378441162
12596602 18 16988840583720456002
13140716 1 17756150338431775880
13150687 139 18190198948246124084
13533116 47 18131067156315160179
1361 2 18410571816262123154
14251740 57 17917714569660291798
14863182 85 18334860558692424404
15081414 286 18260271883896491524
15420108 30 17615954952485662336
15475509 84 10085161017264445767
15848702 151 18410573976946619043
17138139 8 17413004836507921255
17349148 13 18272373109272090777
17492 54 18190484760907506246
17818456 19 17558280821247281009
1813 80 18338238163195528390
20511986 3 17846486059034412805
20645477 70 18261104196975923249
20775438 99 17183015238970223766
20775530 9 17832999251998619266
21285901 2 17894900832727976828
221357 26 17968644004510065405
22182313 1 18188762860414192468
23559900 14 18334575793042524488
3633792 109 18340476791457541671
46194498 28 18041551542357691357
463206 1 18200303441770305878
5309563 4 18338232640121124662
5326457 24 18271801376285038423
59755656 215 18187363251337756508
7164475 11 18341050726793250033

> <PUBCHEM_SHAPE_MULTIPOLES>
514.56
11.22
3.85
1.4
12.56
1.08
0.15
5.01
-1.17
-5.84
-1.68
0.79
0.17
-0.27

> <PUBCHEM_SHAPE_SELFOVERLAP>
1114.71

> <PUBCHEM_SHAPE_VOLUME>
279.3

> <PUBCHEM_COORDINATE_TYPE>
2
5
10

$$$$
