639465
  -OEChem-02172602323D

 59 61  0     1  0  0  0  0  0999 V2000
   -1.8145    0.1664   -0.7301 O   0  0  0  0  0  0  0  0  0  0  0  0
    1.6906    2.7680    1.3870 O   0  0  0  0  0  0  0  0  0  0  0  0
   -0.7350    2.7404    2.2765 O   0  0  0  0  0  0  0  0  0  0  0  0
    2.5395    0.2567   -2.5852 O   0  0  0  0  0  0  0  0  0  0  0  0
   -6.9373    0.6572   -1.4670 O   0  0  0  0  0  0  0  0  0  0  0  0
   -7.7791   -1.7194   -0.2982 O   0  0  0  0  0  0  0  0  0  0  0  0
   -2.4942    0.1436    0.5349 C   0  0  1  0  0  0  0  0  0  0  0  0
   -2.4919    1.5266    1.1831 C   0  0  0  0  0  0  0  0  0  0  0  0
   -0.0947    1.4965    0.3746 C   0  0  0  0  0  0  0  0  0  0  0  0
   -0.5296    0.6353   -0.6372 C   0  0  0  0  0  0  0  0  0  0  0  0
   -1.0671    1.9759    1.3784 C   0  0  0  0  0  0  0  0  0  0  0  0
   -3.9073   -0.3517    0.3102 C   0  0  0  0  0  0  0  0  0  0  0  0
    2.1208    1.5115   -0.5815 C   0  0  0  0  0  0  0  0  0  0  0  0
    1.2325    1.9315    0.4092 C   0  0  0  0  0  0  0  0  0  0  0  0
    3.5491    1.9695   -0.5553 C   0  0  0  0  0  0  0  0  0  0  0  0
    0.3584    0.2352   -1.6367 C   0  0  0  0  0  0  0  0  0  0  0  0
    1.6839    0.6694   -1.6048 C   0  0  0  0  0  0  0  0  0  0  0  0
    4.4336    1.0349    0.2215 C   0  0  0  0  0  0  0  0  0  0  0  0
   -4.7859    0.3854   -0.4830 C   0  0  0  0  0  0  0  0  0  0  0  0
   -4.3292   -1.5444    0.8973 C   0  0  0  0  0  0  0  0  0  0  0  0
    5.4971    0.3389   -0.2266 C   0  0  0  0  0  0  0  0  0  0  0  0
    6.3672   -0.5563    0.6308 C   0  0  0  0  0  0  0  0  0  0  0  0
    5.9544   -2.0339    0.6005 C   0  0  0  0  0  0  0  0  0  0  0  0
   -6.0880   -0.0706   -0.6895 C   0  0  0  0  0  0  0  0  0  0  0  0
   -5.6311   -2.0002    0.6907 C   0  0  0  0  0  0  0  0  0  0  0  0
   -6.5105   -1.2634   -0.1026 C   0  0  0  0  0  0  0  0  0  0  0  0
    5.9192    0.4541   -1.6689 C   0  0  0  0  0  0  0  0  0  0  0  0
    4.6015   -2.2681    1.2134 C   0  0  0  0  0  0  0  0  0  0  0  0
    3.5090   -2.8052    0.6380 C   0  0  0  0  0  0  0  0  0  0  0  0
    2.1827   -3.0107    1.3126 C   0  0  0  0  0  0  0  0  0  0  0  0
    3.5559   -3.2731   -0.7923 C   0  0  0  0  0  0  0  0  0  0  0  0
   -1.9655   -0.5701    1.1842 H   0  0  0  0  0  0  0  0  0  0  0  0
   -2.9894    1.4911    2.1589 H   0  0  0  0  0  0  0  0  0  0  0  0
   -2.9809    2.2861    0.5628 H   0  0  0  0  0  0  0  0  0  0  0  0
    3.6320    2.9714   -0.1151 H   0  0  0  0  0  0  0  0  0  0  0  0
    3.8913    2.1436   -1.5791 H   0  0  0  0  0  0  0  0  0  0  0  0
    0.0147   -0.4235   -2.4306 H   0  0  0  0  0  0  0  0  0  0  0  0
    4.1872    0.9338    1.2780 H   0  0  0  0  0  0  0  0  0  0  0  0
   -4.4664    1.3106   -0.9557 H   0  0  0  0  0  0  0  0  0  0  0  0
   -3.6560   -2.1295    1.5178 H   0  0  0  0  0  0  0  0  0  0  0  0
    6.3471   -0.1958    1.6683 H   0  0  0  0  0  0  0  0  0  0  0  0
    7.4122   -0.4624    0.3093 H   0  0  0  0  0  0  0  0  0  0  0  0
    6.6820   -2.6009    1.1956 H   0  0  0  0  0  0  0  0  0  0  0  0
    6.0430   -2.4249   -0.4161 H   0  0  0  0  0  0  0  0  0  0  0  0
   -5.9542   -2.9303    1.1505 H   0  0  0  0  0  0  0  0  0  0  0  0
    2.6237    2.5858    1.5798 H   0  0  0  0  0  0  0  0  0  0  0  0
    6.7748    1.1321   -1.7532 H   0  0  0  0  0  0  0  0  0  0  0  0
    5.1423    0.7907   -2.3547 H   0  0  0  0  0  0  0  0  0  0  0  0
    6.2329   -0.5272   -2.0432 H   0  0  0  0  0  0  0  0  0  0  0  0
    2.0615   -0.3266   -3.1991 H   0  0  0  0  0  0  0  0  0  0  0  0
    4.5160   -1.9606    2.2551 H   0  0  0  0  0  0  0  0  0  0  0  0
   -7.8558    0.4342   -1.2457 H   0  0  0  0  0  0  0  0  0  0  0  0
   -8.1456   -1.3301   -1.1085 H   0  0  0  0  0  0  0  0  0  0  0  0
    1.4021   -2.4344    0.8054 H   0  0  0  0  0  0  0  0  0  0  0  0
    2.2095   -2.6875    2.3584 H   0  0  0  0  0  0  0  0  0  0  0  0
    1.9057   -4.0696    1.2963 H   0  0  0  0  0  0  0  0  0  0  0  0
    4.2698   -2.7265   -1.4125 H   0  0  0  0  0  0  0  0  0  0  0  0
    2.5804   -3.1228   -1.2698 H   0  0  0  0  0  0  0  0  0  0  0  0
    3.7885   -4.3418   -0.8336 H   0  0  0  0  0  0  0  0  0  0  0  0
  1  7  1  0  0  0  0
  1 10  1  0  0  0  0
  2 14  1  0  0  0  0
  2 46  1  0  0  0  0
  3 11  2  0  0  0  0
  4 17  1  0  0  0  0
  4 50  1  0  0  0  0
  5 24  1  0  0  0  0
  5 52  1  0  0  0  0
  6 26  1  0  0  0  0
  6 53  1  0  0  0  0
  7  8  1  0  0  0  0
  7 12  1  0  0  0  0
  7 32  1  0  0  0  0
  8 11  1  0  0  0  0
  8 33  1  0  0  0  0
  8 34  1  0  0  0  0
  9 10  2  0  0  0  0
  9 11  1  0  0  0  0
  9 14  1  0  0  0  0
 10 16  1  0  0  0  0
 12 19  2  0  0  0  0
 12 20  1  0  0  0  0
 13 14  2  0  0  0  0
 13 15  1  0  0  0  0
 13 17  1  0  0  0  0
 15 18  1  0  0  0  0
 15 35  1  0  0  0  0
 15 36  1  0  0  0  0
 16 17  2  0  0  0  0
 16 37  1  0  0  0  0
 18 21  2  0  0  0  0
 18 38  1  0  0  0  0
 19 24  1  0  0  0  0
 19 39  1  0  0  0  0
 20 25  2  0  0  0  0
 20 40  1  0  0  0  0
 21 22  1  0  0  0  0
 21 27  1  0  0  0  0
 22 23  1  0  0  0  0
 22 41  1  0  0  0  0
 22 42  1  0  0  0  0
 23 28  1  0  0  0  0
 23 43  1  0  0  0  0
 23 44  1  0  0  0  0
 24 26  2  0  0  0  0
 25 26  1  0  0  0  0
 25 45  1  0  0  0  0
 27 47  1  0  0  0  0
 27 48  1  0  0  0  0
 27 49  1  0  0  0  0
 28 29  2  0  0  0  0
 28 51  1  0  0  0  0
 29 30  1  0  0  0  0
 29 31  1  0  0  0  0
 30 54  1  0  0  0  0
 30 55  1  0  0  0  0
 30 56  1  0  0  0  0
 31 57  1  0  0  0  0
 31 58  1  0  0  0  0
 31 59  1  0  0  0  0
M  END
> <PUBCHEM_COMPOUND_CID>
639465

> <PUBCHEM_CONFORMER_RMSD>
1

> <PUBCHEM_CONFORMER_DIVERSEORDER>
10
113
222
206
201
191
148
134
133
177
93
29
112
31
127
159
193
187
130
110
142
109
167
150
119
123
207
135
158
27
221
175
16
97
12
229
204
3
235
108
185
114
131
13
218
118
172
100
184
178
137
182
157
225
190
197
226
94
212
106
121
160
65
176
44
211
38
25
179
132
98
237
239
233
20
251
107
155
227
241
89
202
46
186
58
52
214
153
120
170
124
173
39
102
174
149
250
53
213
162
4
103
205
192
242
41
217
163
140
180
145
76
152
85
2
198
101
169
156
139
72
96
199
228
115
168
154
209
59
43
56
91
143
164
171
126
51
151
224
166
28
138
200
68
81
40
87
249
248
14
84
141
219
240
37
15
208
78
232
136
129
57
22
104
117
181
122
35
195
1
95
188
67
17
244
99
45
79
105
36
246
82
215
24
144
66
30
147
210
9
50
54
125
32
146
231
111
116
223
63
21
236
247
92
69
60
49
165
33
75
18
189
196
55
88
216
8
220
74
230
62
183
73
64
71
243
161
48
86
203
80
19
194
42
61
238
47
6
70
34
26
5
83
77
11
90
234
7
245
128
23

> <PUBCHEM_MMFF94_PARTIAL_CHARGES>
41
1 -0.36
10 0.08
11 0.42
12 -0.14
13 -0.14
14 0.08
15 0.28
16 -0.15
17 0.08
18 -0.29
19 -0.15
2 -0.53
20 -0.15
21 -0.28
22 0.14
23 0.14
24 0.08
25 -0.15
26 0.08
27 0.14
28 -0.29
29 -0.28
3 -0.57
30 0.14
31 0.14
37 0.15
38 0.15
39 0.15
4 -0.53
40 0.15
45 0.15
46 0.45
5 -0.53
50 0.45
51 0.15
52 0.45
53 0.45
6 -0.53
7 0.42
8 0.06
9 0.09

> <PUBCHEM_EFFECTIVE_ROTOR_COUNT>
6.6

> <PUBCHEM_PHARMACOPHORE_FEATURES>
12
1 1 acceptor
1 2 donor
1 27 hydrophobe
1 3 acceptor
1 4 donor
1 5 donor
1 6 donor
3 29 30 31 hydrophobe
4 21 22 23 28 hydrophobe
6 1 7 8 9 10 11 rings
6 12 19 20 24 25 26 rings
6 9 10 13 14 16 17 rings

> <PUBCHEM_HEAVY_ATOM_COUNT>
31

> <PUBCHEM_ATOM_DEF_STEREO_COUNT>
1

> <PUBCHEM_ATOM_UDEF_STEREO_COUNT>
0

> <PUBCHEM_BOND_DEF_STEREO_COUNT>
1

> <PUBCHEM_BOND_UDEF_STEREO_COUNT>
0

> <PUBCHEM_ISOTOPIC_ATOM_COUNT>
0

> <PUBCHEM_COMPONENT_COUNT>
1

> <PUBCHEM_CACTVS_TAUTO_COUNT>
210

> <PUBCHEM_CONFORMER_ID>
0009C1E90000000A

> <PUBCHEM_MMFF94_ENERGY>
78.1493

> <PUBCHEM_FEATURE_SELFOVERLAP>
60.935

> <PUBCHEM_SHAPE_FINGERPRINT>
11135609 187 18115030839549086484
117089 54 17912937093508024374
11796584 16 18113898290531255227
1200032 147 14476377406257434698
12596602 18 18202283564150005624
12758862 65 17489590112423937946
13533116 47 18410011057068687304
13782708 43 18338795745136097111
14251740 57 18200319806128616142
15119646 104 18335708217273779963
15183329 4 16081080498378814913
15475509 8 16009026146746004909
15721738 202 18342736287330746106
15927050 60 17766835405562564344
16090146 7 12685095834814471356
16728300 4 18269828718853534670
18335252 114 8790892865238401306
19315092 285 17896869977250623162
19841028 212 18115580453813800562
21033650 10 16081643371355453253
21315764 119 17821443560941498125
21703447 108 18201433709806971856
23559900 14 18260543468138116689
25222932 49 18129098008104351591
25269216 80 15358281384480872515
3004659 81 18040429997152132091
3633792 109 18188483576419026189
3886686 26 17264982693066274242
404807 14 17466217535585059547
4098825 35 18040712533624237221
439807 62 18335986467363404739
463206 1 18338518671910657890
474113 269 18270950241956373446
5104073 3 16772693017327660609
59755656 215 18186238450262007711
6669772 16 18055343897795018576
6697151 62 17916848215175947833

> <PUBCHEM_SHAPE_MULTIPOLES>
602.75
17.74
3.31
1.69
17.77
1.78
-0.24
10.33
-2.78
-3
1.4
-0.66
-0.64
-0.97

> <PUBCHEM_SHAPE_SELFOVERLAP>
1288.384

> <PUBCHEM_SHAPE_VOLUME>
334

> <PUBCHEM_COORDINATE_TYPE>
2
5
10

$$$$
