5284613
  -OEChem-02172602273D

 80 85  0     1  0  0  0  0  0999 V2000
    3.9172   -1.4473    0.2703 O   0  0  0  0  0  0  0  0  0  0  0  0
   -4.6879    0.0290    0.3463 O   0  0  0  0  0  0  0  0  0  0  0  0
    7.6813   -1.6819   -0.4038 O   0  0  0  0  0  0  0  0  0  0  0  0
   -6.1848    0.2702   -1.4792 O   0  0  0  0  0  0  0  0  0  0  0  0
    9.7594   -1.5247    0.5039 O   0  0  0  0  0  0  0  0  0  0  0  0
   -6.9598   -2.4582   -1.0143 O   0  0  0  0  0  0  0  0  0  0  0  0
   -8.4739   -1.8626    1.2435 O   0  0  0  0  0  0  0  0  0  0  0  0
   -9.1187    0.8587    0.6738 O   0  0  0  0  0  0  0  0  0  0  0  0
    3.1423   -0.3277   -0.1843 C   0  0  2  0  0  0  0  0  0  0  0  0
    3.8916    0.9999    0.1142 C   0  0  1  0  0  0  0  0  0  0  0  0
    1.7353   -0.4178    0.4677 C   0  0  1  0  0  0  0  0  0  0  0  0
    0.8497    0.8316    0.2063 C   0  0  1  0  0  0  0  0  0  0  0  0
   -0.5753    0.7359    0.8791 C   0  0  2  0  0  0  0  0  0  0  0  0
    5.0329    1.0063   -0.9516 C   0  0  2  0  0  0  0  0  0  0  0  0
    2.9564    2.2128   -0.1463 C   0  0  0  0  0  0  0  0  0  0  0  0
    1.6160    2.1149    0.5799 C   0  0  0  0  0  0  0  0  0  0  0  0
    3.1472   -0.4035   -1.7222 C   0  0  0  0  0  0  0  0  0  0  0  0
    0.9938   -1.7004    0.0420 C   0  0  0  0  0  0  0  0  0  0  0  0
    4.4031    0.3448   -2.1917 C   0  0  0  0  0  0  0  0  0  0  0  0
   -1.2079   -0.6179    0.5339 C   0  0  0  0  0  0  0  0  0  0  0  0
    4.4307    1.0922    1.5564 C   0  0  0  0  0  0  0  0  0  0  0  0
   -0.3482   -1.8372    0.7503 C   0  0  0  0  0  0  0  0  0  0  0  0
   -1.4580    1.9072    0.3423 C   0  0  0  0  0  0  0  0  0  0  0  0
   -0.5001    0.8500    2.4206 C   0  0  0  0  0  0  0  0  0  0  0  0
    6.2974    0.2918   -0.5694 C   0  0  0  0  0  0  0  0  0  0  0  0
   -2.9493    1.6736    0.5556 C   0  0  0  0  0  0  0  0  0  0  0  0
   -2.4611   -0.7453    0.0596 C   0  0  0  0  0  0  0  0  0  0  0  0
   -3.4041    0.3989   -0.1488 C   0  0  1  0  0  0  0  0  0  0  0  0
    7.3587    1.0505    0.0396 C   0  0  0  0  0  0  0  0  0  0  0  0
    6.5002   -1.0158   -0.7608 C   0  0  0  0  0  0  0  0  0  0  0  0
    8.5043    0.4626    0.3983 C   0  0  0  0  0  0  0  0  0  0  0  0
   -5.4554   -0.6397   -0.6486 C   0  0  2  0  0  0  0  0  0  0  0  0
    8.7080   -0.9842    0.1761 C   0  0  0  0  0  0  0  0  0  0  0  0
   -6.4009   -1.6396    0.0145 C   0  0  1  0  0  0  0  0  0  0  0  0
   -7.5174   -0.9172    0.7702 C   0  0  1  0  0  0  0  0  0  0  0  0
   -7.1835    1.0255   -0.7861 C   0  0  2  0  0  0  0  0  0  0  0  0
   -8.2184    0.1006   -0.1304 C   0  0  2  0  0  0  0  0  0  0  0  0
   -7.8209    1.9641   -1.8070 C   0  0  0  0  0  0  0  0  0  0  0  0
    1.8969   -0.4993    1.5513 H   0  0  0  0  0  0  0  0  0  0  0  0
    0.6731    0.8753   -0.8784 H   0  0  0  0  0  0  0  0  0  0  0  0
    5.2969    2.0390   -1.2197 H   0  0  0  0  0  0  0  0  0  0  0  0
    2.7527    2.3270   -1.2184 H   0  0  0  0  0  0  0  0  0  0  0  0
    3.4599    3.1400    0.1567 H   0  0  0  0  0  0  0  0  0  0  0  0
    1.7820    2.1665    1.6604 H   0  0  0  0  0  0  0  0  0  0  0  0
    1.0272    2.9994    0.3139 H   0  0  0  0  0  0  0  0  0  0  0  0
    2.2681    0.0726   -2.1678 H   0  0  0  0  0  0  0  0  0  0  0  0
    3.1761   -1.4394   -2.0791 H   0  0  0  0  0  0  0  0  0  0  0  0
    1.6013   -2.5840    0.2703 H   0  0  0  0  0  0  0  0  0  0  0  0
    0.8280   -1.7013   -1.0426 H   0  0  0  0  0  0  0  0  0  0  0  0
    5.0688   -0.2950   -2.7800 H   0  0  0  0  0  0  0  0  0  0  0  0
    4.0873    1.1317   -2.8904 H   0  0  0  0  0  0  0  0  0  0  0  0
    5.1082    0.2723    1.8131 H   0  0  0  0  0  0  0  0  0  0  0  0
    4.9723    2.0320    1.7115 H   0  0  0  0  0  0  0  0  0  0  0  0
    3.6209    1.0577    2.2918 H   0  0  0  0  0  0  0  0  0  0  0  0
   -0.1880   -1.9820    1.8254 H   0  0  0  0  0  0  0  0  0  0  0  0
   -0.8453   -2.7461    0.3900 H   0  0  0  0  0  0  0  0  0  0  0  0
   -1.2846    2.0461   -0.7335 H   0  0  0  0  0  0  0  0  0  0  0  0
   -1.1796    2.8523    0.8238 H   0  0  0  0  0  0  0  0  0  0  0  0
    3.8590   -1.4860    1.2396 H   0  0  0  0  0  0  0  0  0  0  0  0
    0.2151    0.1460    2.8569 H   0  0  0  0  0  0  0  0  0  0  0  0
   -0.2023    1.8554    2.7367 H   0  0  0  0  0  0  0  0  0  0  0  0
   -1.4709    0.6443    2.8865 H   0  0  0  0  0  0  0  0  0  0  0  0
   -3.1849    1.6266    1.6262 H   0  0  0  0  0  0  0  0  0  0  0  0
   -3.5233    2.5254    0.1701 H   0  0  0  0  0  0  0  0  0  0  0  0
   -2.8267   -1.7387   -0.1895 H   0  0  0  0  0  0  0  0  0  0  0  0
   -3.4601    0.6141   -1.2250 H   0  0  0  0  0  0  0  0  0  0  0  0
    7.2193    2.1132    0.2072 H   0  0  0  0  0  0  0  0  0  0  0  0
    5.8316   -1.7310   -1.2158 H   0  0  0  0  0  0  0  0  0  0  0  0
    9.3077    1.0267    0.8576 H   0  0  0  0  0  0  0  0  0  0  0  0
   -4.8061   -1.2064   -1.3281 H   0  0  0  0  0  0  0  0  0  0  0  0
   -5.8623   -2.3029    0.6998 H   0  0  0  0  0  0  0  0  0  0  0  0
   -7.1041   -0.4138    1.6531 H   0  0  0  0  0  0  0  0  0  0  0  0
   -6.6969    1.6502   -0.0258 H   0  0  0  0  0  0  0  0  0  0  0  0
   -8.8158   -0.4258   -0.8847 H   0  0  0  0  0  0  0  0  0  0  0  0
   -7.3093   -1.8784   -1.7117 H   0  0  0  0  0  0  0  0  0  0  0  0
   -8.3276    1.3971   -2.5957 H   0  0  0  0  0  0  0  0  0  0  0  0
   -8.5420    2.6425   -1.3425 H   0  0  0  0  0  0  0  0  0  0  0  0
   -7.0510    2.5677   -2.3004 H   0  0  0  0  0  0  0  0  0  0  0  0
   -9.1756   -1.3648    1.6969 H   0  0  0  0  0  0  0  0  0  0  0  0
   -9.6758    1.3871    0.0781 H   0  0  0  0  0  0  0  0  0  0  0  0
  1  9  1  0  0  0  0
  1 59  1  0  0  0  0
  2 28  1  0  0  0  0
  2 32  1  0  0  0  0
  3 30  1  0  0  0  0
  3 33  1  0  0  0  0
  4 32  1  0  0  0  0
  4 36  1  0  0  0  0
  5 33  2  0  0  0  0
  6 34  1  0  0  0  0
  6 75  1  0  0  0  0
  7 35  1  0  0  0  0
  7 79  1  0  0  0  0
  8 37  1  0  0  0  0
  8 80  1  0  0  0  0
  9 10  1  0  0  0  0
  9 11  1  0  0  0  0
  9 17  1  0  0  0  0
 10 14  1  0  0  0  0
 10 15  1  0  0  0  0
 10 21  1  0  0  0  0
 11 12  1  0  0  0  0
 11 18  1  0  0  0  0
 11 39  1  0  0  0  0
 12 13  1  0  0  0  0
 12 16  1  0  0  0  0
 12 40  1  0  0  0  0
 13 20  1  0  0  0  0
 13 23  1  0  0  0  0
 13 24  1  0  0  0  0
 14 19  1  0  0  0  0
 14 25  1  0  0  0  0
 14 41  1  0  0  0  0
 15 16  1  0  0  0  0
 15 42  1  0  0  0  0
 15 43  1  0  0  0  0
 16 44  1  0  0  0  0
 16 45  1  0  0  0  0
 17 19  1  0  0  0  0
 17 46  1  0  0  0  0
 17 47  1  0  0  0  0
 18 22  1  0  0  0  0
 18 48  1  0  0  0  0
 18 49  1  0  0  0  0
 19 50  1  0  0  0  0
 19 51  1  0  0  0  0
 20 22  1  0  0  0  0
 20 27  2  0  0  0  0
 21 52  1  0  0  0  0
 21 53  1  0  0  0  0
 21 54  1  0  0  0  0
 22 55  1  0  0  0  0
 22 56  1  0  0  0  0
 23 26  1  0  0  0  0
 23 57  1  0  0  0  0
 23 58  1  0  0  0  0
 24 60  1  0  0  0  0
 24 61  1  0  0  0  0
 24 62  1  0  0  0  0
 25 29  1  0  0  0  0
 25 30  2  0  0  0  0
 26 28  1  0  0  0  0
 26 63  1  0  0  0  0
 26 64  1  0  0  0  0
 27 28  1  0  0  0  0
 27 65  1  0  0  0  0
 28 66  1  0  0  0  0
 29 31  2  0  0  0  0
 29 67  1  0  0  0  0
 30 68  1  0  0  0  0
 31 33  1  0  0  0  0
 31 69  1  0  0  0  0
 32 34  1  0  0  0  0
 32 70  1  0  0  0  0
 34 35  1  0  0  0  0
 34 71  1  0  0  0  0
 35 37  1  0  0  0  0
 35 72  1  0  0  0  0
 36 37  1  0  0  0  0
 36 38  1  0  0  0  0
 36 73  1  0  0  0  0
 37 74  1  0  0  0  0
 38 76  1  0  0  0  0
 38 77  1  0  0  0  0
 38 78  1  0  0  0  0
M  END
> <PUBCHEM_COMPOUND_CID>
5284613

> <PUBCHEM_CONFORMER_RMSD>
1

> <PUBCHEM_CONFORMER_DIVERSEORDER>
1
17
16
7
14
19
10
20
5
15
18
13
8
6
12
4
11
3
9
2

> <PUBCHEM_MMFF94_PARTIAL_CHARGES>
33
1 -0.68
13 0.14
14 0.14
2 -0.56
20 -0.28
22 0.14
25 -0.14
27 -0.29
28 0.42
29 -0.15
3 -0.23
30 -0.07
31 -0.14
32 0.56
33 0.71
34 0.28
35 0.28
36 0.28
37 0.28
4 -0.56
5 -0.57
59 0.4
6 -0.68
65 0.15
67 0.15
68 0.15
69 0.15
7 -0.68
75 0.4
79 0.4
8 -0.68
80 0.4
9 0.28

> <PUBCHEM_EFFECTIVE_ROTOR_COUNT>
6.2

> <PUBCHEM_PHARMACOPHORE_FEATURES>
17
1 1 acceptor
1 1 donor
1 2 acceptor
1 4 acceptor
1 5 acceptor
1 6 acceptor
1 6 donor
1 7 acceptor
1 7 donor
1 8 acceptor
1 8 donor
5 9 10 14 17 19 rings
6 11 12 13 18 20 22 rings
6 13 20 23 26 27 28 rings
6 3 25 29 30 31 33 rings
6 4 32 34 35 36 37 rings
6 9 10 11 12 15 16 rings

> <PUBCHEM_HEAVY_ATOM_COUNT>
38

> <PUBCHEM_ATOM_DEF_STEREO_COUNT>
12

> <PUBCHEM_ATOM_UDEF_STEREO_COUNT>
0

> <PUBCHEM_BOND_DEF_STEREO_COUNT>
0

> <PUBCHEM_BOND_UDEF_STEREO_COUNT>
0

> <PUBCHEM_ISOTOPIC_ATOM_COUNT>
0

> <PUBCHEM_COMPONENT_COUNT>
1

> <PUBCHEM_CACTVS_TAUTO_COUNT>
1

> <PUBCHEM_CONFORMER_ID>
0050A30500000001

> <PUBCHEM_MMFF94_ENERGY>
132.0141

> <PUBCHEM_FEATURE_SELFOVERLAP>
86.533

> <PUBCHEM_SHAPE_FINGERPRINT>
10 15 9799691493424491301
10100884 174 11526787896649801029
10299344 5 14692572126335775733
106641 1 12247673877367733132
10883706 142 16443349763289927985
11135926 11 18202001011115735895
11408170 108 17489032544766360158
11828532 37 18262809587082304754
12013929 94 10591747810460906389
12082328 90 17821446868382996071
12202916 173 18273496771580574614
12643181 29 17847057805460885895
12741549 16 17275382089360208600
13008946 282 16128082468993879320
13811026 1 18341615901792418542
13914758 101 17603585214438070780
14118638 360 17203336558998774766
14294032 229 17751072518804416093
15131766 46 16301507424662359564
15183329 4 18341892992203547237
15439362 3 17899422175715365644
15461852 350 17675927594608731013
15510794 2 18272369798263866119
1577012 14 16515675624969089869
15840311 113 17822013142957746004
18603816 31 16486680460052414509
18608769 82 18410856585863306575
19841028 212 18041838399230039802
20105231 36 18261398906050516659
21130935 74 17702673138552721966
21267235 1 18412829096400966976
21781051 124 18114752632467423739
21792961 116 18410291403196843265
22149856 69 15984840203034887722
22224240 67 12175622880225823652
23559900 14 18268988855199841688
23569917 315 18410582760635923970
24893992 56 18113339738745833243
249057 3 17846497062518981934
3092352 35 16660364784074067475
335352 9 18408327692535560764
335507 130 16988847185686472049
3633792 109 18187927240572790002
4093350 32 14490462072055626480
4169191 19 11530752709449858455
4353968 344 18337670798622518372
439807 62 18344148081244711120
45266715 3 18114185186374677762
474113 269 18115020798374406650
484989 97 18338240487057977819
5219985 9 16415479350421773929
5283156 175 18413392021027455646
58083652 198 16559027220921021905
58902169 19 17530970232218744279
6081469 158 18335700521230572596
6086070 43 14779560018521192036
6126387 218 16128658522992577249
6691757 9 13767935602908434297
9663363 56 16702299040243591041
9962374 69 16916492753204739157

> <PUBCHEM_SHAPE_MULTIPOLES>
735.07
29.91
2.1
1.43
12.96
0.08
-0.14
6.96
-3.79
1.03
0.05
0.4
-0.3
1.05

> <PUBCHEM_SHAPE_SELFOVERLAP>
1588.09

> <PUBCHEM_SHAPE_VOLUME>
398.1

> <PUBCHEM_COORDINATE_TYPE>
2
5
10

$$$$
