11972438
  -OEChem-02172602353D

 38 39  0     1  0  0  0  0  0999 V2000
    1.2333    0.7212   -0.5857 O   0  0  0  0  0  0  0  0  0  0  0  0
    0.0031   -1.2418   -0.8639 O   0  0  0  0  0  0  0  0  0  0  0  0
    4.6959   -1.3882    0.0691 O   0  0  0  0  0  0  0  0  0  0  0  0
    4.5428    1.3962    0.8304 O   0  0  0  0  0  0  0  0  0  0  0  0
    2.0759   -2.6941    0.4020 O   0  0  0  0  0  0  0  0  0  0  0  0
    0.9871    3.4347   -0.2220 O   0  0  0  0  0  0  0  0  0  0  0  0
   -1.5338   -3.4450   -0.1506 O   0  0  0  0  0  0  0  0  0  0  0  0
   -2.8100    2.6805   -0.2030 O   0  0  0  0  0  0  0  0  0  0  0  0
   -4.8385    1.9899    0.5548 O   0  0  0  0  0  0  0  0  0  0  0  0
    3.4834   -0.7346    0.4474 C   0  0  1  0  0  0  0  0  0  0  0  0
    3.5811    0.7292    0.0172 C   0  0  1  0  0  0  0  0  0  0  0  0
    2.2992   -1.4307   -0.2234 C   0  0  2  0  0  0  0  0  0  0  0  0
    2.2270    1.4283    0.1584 C   0  0  1  0  0  0  0  0  0  0  0  0
    1.0215   -0.6010   -0.0962 C   0  0  1  0  0  0  0  0  0  0  0  0
    2.2707    2.8569   -0.3747 C   0  0  0  0  0  0  0  0  0  0  0  0
   -1.2840   -1.0804   -0.4295 C   0  0  0  0  0  0  0  0  0  0  0  0
   -2.0501   -2.1869   -0.0741 C   0  0  0  0  0  0  0  0  0  0  0  0
   -1.8186    0.2024   -0.3477 C   0  0  0  0  0  0  0  0  0  0  0  0
   -3.1298    0.3801    0.0936 C   0  0  0  0  0  0  0  0  0  0  0  0
   -3.3614   -2.0091    0.3669 C   0  0  0  0  0  0  0  0  0  0  0  0
   -3.9013   -0.7257    0.4509 C   0  0  0  0  0  0  0  0  0  0  0  0
   -3.6932    1.7181    0.1800 C   0  0  0  0  0  0  0  0  0  0  0  0
    3.4132   -0.8199    1.5388 H   0  0  0  0  0  0  0  0  0  0  0  0
    3.9357    0.7813   -1.0196 H   0  0  0  0  0  0  0  0  0  0  0  0
    2.5251   -1.6339   -1.2769 H   0  0  0  0  0  0  0  0  0  0  0  0
    1.9114    1.4687    1.2099 H   0  0  0  0  0  0  0  0  0  0  0  0
    0.7098   -0.5585    0.9582 H   0  0  0  0  0  0  0  0  0  0  0  0
    2.5233    2.8802   -1.4400 H   0  0  0  0  0  0  0  0  0  0  0  0
    2.9919    3.4709    0.1722 H   0  0  0  0  0  0  0  0  0  0  0  0
    5.4282   -0.9149    0.4999 H   0  0  0  0  0  0  0  0  0  0  0  0
    4.2330    1.3615    1.7515 H   0  0  0  0  0  0  0  0  0  0  0  0
    1.8715   -2.5350    1.3393 H   0  0  0  0  0  0  0  0  0  0  0  0
    0.3580    2.8907   -0.7258 H   0  0  0  0  0  0  0  0  0  0  0  0
   -1.2130    1.0485   -0.6533 H   0  0  0  0  0  0  0  0  0  0  0  0
   -3.9734   -2.8620    0.6484 H   0  0  0  0  0  0  0  0  0  0  0  0
   -4.9250   -0.6086    0.7969 H   0  0  0  0  0  0  0  0  0  0  0  0
   -2.2098   -4.0828    0.1363 H   0  0  0  0  0  0  0  0  0  0  0  0
   -3.1992    3.5789   -0.1405 H   0  0  0  0  0  0  0  0  0  0  0  0
  1 13  1  0  0  0  0
  1 14  1  0  0  0  0
  2 14  1  0  0  0  0
  2 16  1  0  0  0  0
  3 10  1  0  0  0  0
  3 30  1  0  0  0  0
  4 11  1  0  0  0  0
  4 31  1  0  0  0  0
  5 12  1  0  0  0  0
  5 32  1  0  0  0  0
  6 15  1  0  0  0  0
  6 33  1  0  0  0  0
  7 17  1  0  0  0  0
  7 37  1  0  0  0  0
  8 22  1  0  0  0  0
  8 38  1  0  0  0  0
  9 22  2  0  0  0  0
 10 11  1  0  0  0  0
 10 12  1  0  0  0  0
 10 23  1  0  0  0  0
 11 13  1  0  0  0  0
 11 24  1  0  0  0  0
 12 14  1  0  0  0  0
 12 25  1  0  0  0  0
 13 15  1  0  0  0  0
 13 26  1  0  0  0  0
 14 27  1  0  0  0  0
 15 28  1  0  0  0  0
 15 29  1  0  0  0  0
 16 17  2  0  0  0  0
 16 18  1  0  0  0  0
 17 20  1  0  0  0  0
 18 19  2  0  0  0  0
 18 34  1  0  0  0  0
 19 21  1  0  0  0  0
 19 22  1  0  0  0  0
 20 21  2  0  0  0  0
 20 35  1  0  0  0  0
 21 36  1  0  0  0  0
M  END
> <PUBCHEM_COMPOUND_CID>
11972438

> <PUBCHEM_CONFORMER_RMSD>
0.8

> <PUBCHEM_CONFORMER_DIVERSEORDER>
1
41
81
95
15
88
7
82
87
21
27
71
11
65
24
14
51
67
66
58
40
3
68
74
70
89
47
43
29
19
97
23
45
85
62
96
38
46
80
36
84
86
2
60
33
76
75
72
79
12
50
42
57
34
59
73
4
9
91
13
94
78
53
31
83
6
90
10
98
48
26
5
92
37
93
35
44
20
28
22
30
39
52
77
56
25
54
64
32
55
63
61
8
49
69
18
16
17

> <PUBCHEM_MMFF94_PARTIAL_CHARGES>
31
1 -0.56
10 0.28
11 0.28
12 0.28
13 0.28
14 0.56
15 0.28
16 0.08
17 0.08
18 -0.15
19 0.09
2 -0.36
20 -0.15
21 -0.15
22 0.63
3 -0.68
30 0.4
31 0.4
32 0.4
33 0.4
34 0.15
35 0.15
36 0.15
37 0.45
38 0.5
4 -0.68
5 -0.68
6 -0.68
7 -0.53
8 -0.65
9 -0.57

> <PUBCHEM_EFFECTIVE_ROTOR_COUNT>
5.2

> <PUBCHEM_PHARMACOPHORE_FEATURES>
16
1 1 acceptor
1 2 acceptor
1 3 acceptor
1 3 donor
1 4 acceptor
1 4 donor
1 5 acceptor
1 5 donor
1 6 acceptor
1 6 donor
1 7 donor
1 8 acceptor
1 9 acceptor
3 8 9 22 anion
6 1 10 11 12 13 14 rings
6 16 17 18 19 20 21 rings

> <PUBCHEM_HEAVY_ATOM_COUNT>
22

> <PUBCHEM_ATOM_DEF_STEREO_COUNT>
5

> <PUBCHEM_ATOM_UDEF_STEREO_COUNT>
0

> <PUBCHEM_BOND_DEF_STEREO_COUNT>
0

> <PUBCHEM_BOND_UDEF_STEREO_COUNT>
0

> <PUBCHEM_ISOTOPIC_ATOM_COUNT>
0

> <PUBCHEM_COMPONENT_COUNT>
1

> <PUBCHEM_CACTVS_TAUTO_COUNT>
4

> <PUBCHEM_CONFORMER_ID>
00B6AF5600000001

> <PUBCHEM_MMFF94_ENERGY>
70.8879

> <PUBCHEM_FEATURE_SELFOVERLAP>
81.321

> <PUBCHEM_SHAPE_FINGERPRINT>
10366900 7 18042132126945929435
10411042 1 16682039134818366503
10608611 8 18411982472621568135
10616163 171 18266744768909471127
10967382 1 18266459802124329405
12107183 9 18265046929936027250
12173636 292 18411979178619386527
12251169 10 18337390538546519887
12403260 363 18413101784460191439
12507560 40 18341895212031771774
12633257 1 18262228932951903456
13140716 1 18263921042735108250
14178342 30 18266160890007970434
14223421 5 18266462190205410223
14341114 176 18409736187387538107
14420673 8 18192152599213394394
14790565 3 18120097436490933436
15042514 8 17040065448117860730
15196674 1 18411699889559106360
15256400 18 18411700971832875116
15442244 35 18410009948861434844
1601671 61 18412548682977263812
17492 89 18337111296995579370
17834072 32 18341335500821204449
1813 80 16950282901689114124
19591789 44 17330839020069872958
19930381 70 17257369068875396193
20510252 161 18343025501843655579
20715895 44 18124596388810540041
21033648 29 17703210876399133458
21065198 57 18410856581294467866
21065199 12 18411138069113778642
21421861 104 17897155815845664546
23227448 37 18413108360107550845
23558518 356 18262522610226627251
23559900 14 18412257363239321275
335352 9 18339081471418196572
350125 39 18410298046851808711
4214541 1 18411138030342677499
4409770 3 17609196980084383444
5104073 3 18409727361462042482
7097593 13 18334007294134106026
7832392 63 18411134727797767374
9709674 26 18411986896422669503

> <PUBCHEM_SHAPE_MULTIPOLES>
399.93
8.81
3.74
0.72
0.63
0.88
0
1.83
1.88
-0.7
-0.1
0.05
0
-0.22

> <PUBCHEM_SHAPE_SELFOVERLAP>
845.686

> <PUBCHEM_SHAPE_VOLUME>
220.8

> <PUBCHEM_COORDINATE_TYPE>
2
5
10

$$$$
