101456954
  -OEChem-02172602463D

 56 63  0     0  0  0  0  0  0999 V2000
   -2.6230    1.2990    1.3452 S   0  0  0  0  0  0  0  0  0  0  0  0
   -1.5232    1.8855   -1.4194 S   0  0  0  0  0  0  0  0  0  0  0  0
   -3.0154   -1.1238   -1.2134 S   0  0  0  0  0  0  0  0  0  0  0  0
   -1.4428   -1.8521    1.2749 S   0  0  0  0  0  0  0  0  0  0  0  0
    0.5625    2.3147    1.7107 S   0  0  0  0  0  0  0  0  0  0  0  0
   -0.0955   -2.4624   -2.2102 S   0  0  0  0  0  0  0  0  0  0  0  0
   -1.3175    0.7902    0.1128 C   0  0  0  0  0  0  0  0  0  0  0  0
   -1.4403   -0.7676   -0.2785 C   0  0  0  0  0  0  0  0  0  0  0  0
    0.1145    1.0837    0.6087 C   0  0  0  0  0  0  0  0  0  0  0  0
   -0.1782   -1.2034   -1.0532 C   0  0  0  0  0  0  0  0  0  0  0  0
    1.2378    0.4212    0.1371 C   0  0  0  0  0  0  0  0  0  0  0  0
    1.0803   -0.6660   -0.8286 C   0  0  0  0  0  0  0  0  0  0  0  0
    2.4534    0.9026    0.6814 C   0  0  0  0  0  0  0  0  0  0  0  0
   -3.0919    2.8290    0.5818 C   0  0  0  0  0  0  0  0  0  0  0  0
   -2.5863    3.0997   -0.6880 C   0  0  0  0  0  0  0  0  0  0  0  0
   -3.4749   -2.6058   -0.3555 C   0  0  0  0  0  0  0  0  0  0  0  0
   -2.7525   -2.9414    0.7878 C   0  0  0  0  0  0  0  0  0  0  0  0
    2.1020   -1.2647   -1.6058 C   0  0  0  0  0  0  0  0  0  0  0  0
    2.2263    1.9355    1.5648 C   0  0  0  0  0  0  0  0  0  0  0  0
    1.5930   -2.2588   -2.4129 C   0  0  0  0  0  0  0  0  0  0  0  0
    3.8093    0.4630    0.4763 C   0  0  0  0  0  0  0  0  0  0  0  0
   -3.9465    3.7387    1.2049 C   0  0  0  0  0  0  0  0  0  0  0  0
   -2.9309    4.2813   -1.3443 C   0  0  0  0  0  0  0  0  0  0  0  0
   -4.5274   -3.4156   -0.7829 C   0  0  0  0  0  0  0  0  0  0  0  0
   -3.0769   -4.0881    1.5124 C   0  0  0  0  0  0  0  0  0  0  0  0
    4.3433   -0.5465    1.2770 C   0  0  0  0  0  0  0  0  0  0  0  0
    4.5885    1.0465   -0.5227 C   0  0  0  0  0  0  0  0  0  0  0  0
   -4.2888    4.9231    0.5515 C   0  0  0  0  0  0  0  0  0  0  0  0
   -3.7819    5.1939   -0.7203 C   0  0  0  0  0  0  0  0  0  0  0  0
   -4.8502   -4.5655   -0.0616 C   0  0  0  0  0  0  0  0  0  0  0  0
   -4.1267   -4.9009    1.0836 C   0  0  0  0  0  0  0  0  0  0  0  0
    5.6568   -0.9723    1.0790 C   0  0  0  0  0  0  0  0  0  0  0  0
    5.9018    0.6208   -0.7207 C   0  0  0  0  0  0  0  0  0  0  0  0
    6.4361   -0.3886    0.0801 C   0  0  0  0  0  0  0  0  0  0  0  0
    6.2290   -2.0509    1.9355 C   0  0  0  0  0  0  0  0  0  0  0  0
    6.7363    1.2456   -1.7874 C   0  0  0  0  0  0  0  0  0  0  0  0
    3.1509   -1.0150   -1.6255 H   0  0  0  0  0  0  0  0  0  0  0  0
    2.9505    2.4978    2.1394 H   0  0  0  0  0  0  0  0  0  0  0  0
    2.1345   -2.8805   -3.1118 H   0  0  0  0  0  0  0  0  0  0  0  0
   -4.3514    3.5405    2.1937 H   0  0  0  0  0  0  0  0  0  0  0  0
   -2.5467    4.5041   -2.3361 H   0  0  0  0  0  0  0  0  0  0  0  0
   -5.1019   -3.1659   -1.6709 H   0  0  0  0  0  0  0  0  0  0  0  0
   -2.5245   -4.3605    2.4077 H   0  0  0  0  0  0  0  0  0  0  0  0
    3.7379   -1.0067    2.0555 H   0  0  0  0  0  0  0  0  0  0  0  0
    4.1761    1.8352   -1.1490 H   0  0  0  0  0  0  0  0  0  0  0  0
   -4.9527    5.6353    1.0330 H   0  0  0  0  0  0  0  0  0  0  0  0
   -4.0524    6.1163   -1.2261 H   0  0  0  0  0  0  0  0  0  0  0  0
   -5.6679   -5.2002   -0.3910 H   0  0  0  0  0  0  0  0  0  0  0  0
   -4.3827   -5.7959    1.6432 H   0  0  0  0  0  0  0  0  0  0  0  0
    7.4602   -0.7203   -0.0740 H   0  0  0  0  0  0  0  0  0  0  0  0
    6.0373   -3.0296    1.4846 H   0  0  0  0  0  0  0  0  0  0  0  0
    7.3103   -1.9268    2.0586 H   0  0  0  0  0  0  0  0  0  0  0  0
    5.7890   -2.0340    2.9384 H   0  0  0  0  0  0  0  0  0  0  0  0
    7.2678    2.1149   -1.3875 H   0  0  0  0  0  0  0  0  0  0  0  0
    7.4713    0.5357   -2.1817 H   0  0  0  0  0  0  0  0  0  0  0  0
    6.1192    1.5693   -2.6324 H   0  0  0  0  0  0  0  0  0  0  0  0
  1  7  1  0  0  0  0
  1 14  1  0  0  0  0
  2  7  1  0  0  0  0
  2 15  1  0  0  0  0
  3  8  1  0  0  0  0
  3 16  1  0  0  0  0
  4  8  1  0  0  0  0
  4 17  1  0  0  0  0
  5  9  1  0  0  0  0
  5 19  1  0  0  0  0
  6 10  1  0  0  0  0
  6 20  1  0  0  0  0
  7  8  1  0  0  0  0
  7  9  1  0  0  0  0
  8 10  1  0  0  0  0
  9 11  2  0  0  0  0
 10 12  2  0  0  0  0
 11 12  1  0  0  0  0
 11 13  1  0  0  0  0
 12 18  1  0  0  0  0
 13 19  2  0  0  0  0
 13 21  1  0  0  0  0
 14 15  1  0  0  0  0
 14 22  2  0  0  0  0
 15 23  2  0  0  0  0
 16 17  1  0  0  0  0
 16 24  2  0  0  0  0
 17 25  2  0  0  0  0
 18 20  2  0  0  0  0
 18 37  1  0  0  0  0
 19 38  1  0  0  0  0
 20 39  1  0  0  0  0
 21 26  2  0  0  0  0
 21 27  1  0  0  0  0
 22 28  1  0  0  0  0
 22 40  1  0  0  0  0
 23 29  1  0  0  0  0
 23 41  1  0  0  0  0
 24 30  1  0  0  0  0
 24 42  1  0  0  0  0
 25 31  1  0  0  0  0
 25 43  1  0  0  0  0
 26 32  1  0  0  0  0
 26 44  1  0  0  0  0
 27 33  2  0  0  0  0
 27 45  1  0  0  0  0
 28 29  2  0  0  0  0
 28 46  1  0  0  0  0
 29 47  1  0  0  0  0
 30 31  2  0  0  0  0
 30 48  1  0  0  0  0
 31 49  1  0  0  0  0
 32 34  2  0  0  0  0
 32 35  1  0  0  0  0
 33 34  1  0  0  0  0
 33 36  1  0  0  0  0
 34 50  1  0  0  0  0
 35 51  1  0  0  0  0
 35 52  1  0  0  0  0
 35 53  1  0  0  0  0
 36 54  1  0  0  0  0
 36 55  1  0  0  0  0
 36 56  1  0  0  0  0
M  END
> <PUBCHEM_COMPOUND_CID>
101456954

> <PUBCHEM_CONFORMER_RMSD>
0.8

> <PUBCHEM_CONFORMER_DIVERSEORDER>
1
4
2
3

> <PUBCHEM_MMFF94_PARTIAL_CHARGES>
48
1 -0.33
10 -0.14
13 -0.05
14 0.1
15 0.1
16 0.1
17 0.1
18 -0.15
19 -0.11
2 -0.33
20 -0.11
21 0.05
22 -0.15
23 -0.15
24 -0.15
25 -0.15
26 -0.15
27 -0.15
28 -0.15
29 -0.15
3 -0.33
30 -0.15
31 -0.15
32 -0.14
33 -0.14
34 -0.15
35 0.14
36 0.14
37 0.15
38 0.15
39 0.15
4 -0.33
40 0.15
41 0.15
42 0.15
43 0.15
44 0.15
45 0.15
46 0.15
47 0.15
48 0.15
49 0.15
5 -0.08
50 0.15
6 -0.08
7 0.64
8 0.64
9 -0.14

> <PUBCHEM_EFFECTIVE_ROTOR_COUNT>
1.8

> <PUBCHEM_PHARMACOPHORE_FEATURES>
8
5 1 2 7 14 15 rings
5 3 4 8 16 17 rings
5 5 9 11 13 19 rings
5 6 10 12 18 20 rings
6 14 15 22 23 28 29 rings
6 16 17 24 25 30 31 rings
6 21 26 27 32 33 34 rings
6 7 8 9 10 11 12 rings

> <PUBCHEM_HEAVY_ATOM_COUNT>
36

> <PUBCHEM_ATOM_DEF_STEREO_COUNT>
0

> <PUBCHEM_ATOM_UDEF_STEREO_COUNT>
0

> <PUBCHEM_BOND_DEF_STEREO_COUNT>
0

> <PUBCHEM_BOND_UDEF_STEREO_COUNT>
0

> <PUBCHEM_ISOTOPIC_ATOM_COUNT>
0

> <PUBCHEM_COMPONENT_COUNT>
1

> <PUBCHEM_CACTVS_TAUTO_COUNT>
3

> <PUBCHEM_CONFORMER_ID>
060C1C3A00000001

> <PUBCHEM_MMFF94_ENERGY>
98.9763

> <PUBCHEM_FEATURE_SELFOVERLAP>
40.791

> <PUBCHEM_SHAPE_FINGERPRINT>
10305334 12 18121765141710319426
105312 117 18269272374665537076
10906281 52 17843965841103203328
11297750 10 18199742720878537977
11578080 2 18197236770954493532
11763715 3 18045234966071472253
11991303 11 18336268916363949933
12107183 9 17972308513735676378
12422481 6 17631183037625982847
12597179 24 18127406748429466788
12788726 201 18335414720430744587
131258 43 17833288771200720892
13540713 4 17917162589343449670
13690498 29 18270406113092877524
13726171 33 18270697432573143104
140371 6 18410293644858795957
14068700 675 17969775478777958062
14202776 33 18265349446290220220
14400156 188 17830459744847044515
14713325 29 18413389847552711269
14725015 67 18270672190264185643
14955137 171 17256808322335669569
15131766 46 15551331552404022417
15324884 4 17917989473858869168
15439362 3 17910112409106138268
15775530 1 18199485293618928703
15927050 60 18194116318195307131
16090146 7 16878230852169706994
16993438 75 18272079483743216263
17980427 26 17618489988148833485
18393751 57 18119253853121216141
19319366 153 17764861404139399189
20721686 124 17612581229814549525
20739085 24 17695640928004910011
21120745 212 18263092174435063301
21304303 282 18264755577030596111
21703447 108 18123744516253967496
21796203 349 17469919986821327787
22182313 1 17632026273229488950
23559900 14 17534895583309173519
24180151 214 16952528241951646696
24180151 248 17981054325318254876
4058900 60 17909274572308289481
504843 32 18265048046870357197
508706 21 18342743991916064276
513202 73 18341621467964941710
6669772 16 17980756035195530535
6700243 42 17911277002151903060

> <PUBCHEM_SHAPE_MULTIPOLES>
763.96
13
7.09
2.02
22.32
1.8
-0.37
-2.01
1.3
-17.59
0.57
1.01
-0.6
0.18

> <PUBCHEM_SHAPE_SELFOVERLAP>
1653.591

> <PUBCHEM_SHAPE_VOLUME>
414.1

> <PUBCHEM_COORDINATE_TYPE>
2
5
10

$$$$
