16398499
  -OEChem-02172602263D

 91 97  0     1  0  0  0  0  0999 V2000
   -5.6494   -0.7230    0.5368 O   0  0  0  0  0  0  0  0  0  0  0  0
   -1.4666    0.9656   -2.2521 O   0  0  0  0  0  0  0  0  0  0  0  0
    5.1634   -0.8655   -1.0889 O   0  0  0  0  0  0  0  0  0  0  0  0
    6.8628    0.6862   -0.7040 O   0  0  0  0  0  0  0  0  0  0  0  0
    6.5399   -2.7401    0.5232 O   0  0  0  0  0  0  0  0  0  0  0  0
    9.4462   -2.2563    0.5347 O   0  0  0  0  0  0  0  0  0  0  0  0
   10.0095    0.5087    1.1614 O   0  0  0  0  0  0  0  0  0  0  0  0
    7.3694    3.3788   -0.4813 O   0  0  0  0  0  0  0  0  0  0  0  0
   -8.8015    0.8681   -0.3066 N   0  0  0  0  0  0  0  0  0  0  0  0
   -0.9129    0.0275    1.1041 C   0  0  2  0  0  0  0  0  0  0  0  0
   -0.2712    0.6098   -0.1658 C   0  0  1  0  0  0  0  0  0  0  0  0
   -2.2202    0.8078    1.2421 C   0  0  1  0  0  0  0  0  0  0  0  0
   -5.1280    0.6488    0.5496 C   0  0  1  0  0  0  0  0  0  0  0  0
    0.9241   -0.2512   -0.6459 C   0  0  2  0  0  0  0  0  0  0  0  0
   -2.7282    0.8006   -0.1823 C   0  0  0  0  0  0  0  0  0  0  0  0
   -6.3674    1.5793    0.2237 C   0  0  1  0  0  0  0  0  0  0  0  0
   -3.2235    0.1894    2.2029 C   0  0  0  0  0  0  0  0  0  0  0  0
   -4.5717    0.8741    1.9840 C   0  0  0  0  0  0  0  0  0  0  0  0
   -4.0227    0.6849   -0.5372 C   0  0  0  0  0  0  0  0  0  0  0  0
   -1.4932    0.7841   -1.0468 C   0  0  0  0  0  0  0  0  0  0  0  0
   -7.3770    0.5666   -0.3259 C   0  0  1  0  0  0  0  0  0  0  0  0
    0.0715    0.1249    2.2615 C   0  0  0  0  0  0  0  0  0  0  0  0
   -7.0735   -0.6452    0.5279 C   0  0  1  0  0  0  0  0  0  0  0  0
    1.8213   -0.5695    0.5676 C   0  0  0  0  0  0  0  0  0  0  0  0
    1.7344    0.5739   -1.6845 C   0  0  0  0  0  0  0  0  0  0  0  0
    1.4321   -0.3712    1.8454 C   0  0  0  0  0  0  0  0  0  0  0  0
    0.4515   -1.5760   -1.2851 C   0  0  0  0  0  0  0  0  0  0  0  0
    3.1989   -1.1064    0.2610 C   0  0  0  0  0  0  0  0  0  0  0  0
    3.1066   -0.0142   -2.0125 C   0  0  0  0  0  0  0  0  0  0  0  0
   -7.7572   -1.8765   -0.0403 C   0  0  0  0  0  0  0  0  0  0  0  0
    3.9355   -0.2292   -0.7480 C   0  0  2  0  0  0  0  0  0  0  0  0
   -6.9351    2.3869    1.3997 C   0  0  0  0  0  0  0  0  0  0  0  0
   -9.2687   -1.5975   -0.1346 C   0  0  1  0  0  0  0  0  0  0  0  0
   -4.4654    0.4904   -1.9659 C   0  0  0  0  0  0  0  0  0  0  0  0
   -9.5572   -0.2653   -0.8644 C   0  0  0  0  0  0  0  0  0  0  0  0
   -9.9894   -2.7564   -0.8190 C   0  0  0  0  0  0  0  0  0  0  0  0
    6.2138   -0.4801   -0.2029 C   0  0  2  0  0  0  0  0  0  0  0  0
    7.2006   -1.6437   -0.1084 C   0  0  1  0  0  0  0  0  0  0  0  0
    8.4370   -1.2598    0.7046 C   0  0  2  0  0  0  0  0  0  0  0  0
    7.9121    1.1402    0.1527 C   0  0  1  0  0  0  0  0  0  0  0  0
    9.0112    0.0786    0.2398 C   0  0  1  0  0  0  0  0  0  0  0  0
    8.4384    2.4523   -0.4204 C   0  0  0  0  0  0  0  0  0  0  0  0
   -1.1586   -1.0344    0.9533 H   0  0  0  0  0  0  0  0  0  0  0  0
    0.0799    1.6309    0.0531 H   0  0  0  0  0  0  0  0  0  0  0  0
   -2.0152    1.8462    1.5379 H   0  0  0  0  0  0  0  0  0  0  0  0
   -6.1120    2.3162   -0.5475 H   0  0  0  0  0  0  0  0  0  0  0  0
   -3.3192   -0.8920    2.0449 H   0  0  0  0  0  0  0  0  0  0  0  0
   -2.8920    0.3354    3.2373 H   0  0  0  0  0  0  0  0  0  0  0  0
   -5.2737    0.4841    2.7308 H   0  0  0  0  0  0  0  0  0  0  0  0
   -4.4316    1.9438    2.1789 H   0  0  0  0  0  0  0  0  0  0  0  0
   -7.0948    0.3695   -1.3680 H   0  0  0  0  0  0  0  0  0  0  0  0
    0.1655    1.1579    2.6159 H   0  0  0  0  0  0  0  0  0  0  0  0
   -0.2926   -0.4752    3.1031 H   0  0  0  0  0  0  0  0  0  0  0  0
   -7.4026   -0.5046    1.5667 H   0  0  0  0  0  0  0  0  0  0  0  0
    1.1647    0.6776   -2.6157 H   0  0  0  0  0  0  0  0  0  0  0  0
    1.8911    1.5935   -1.3064 H   0  0  0  0  0  0  0  0  0  0  0  0
    2.1235   -0.5871    2.6562 H   0  0  0  0  0  0  0  0  0  0  0  0
   -0.1168   -2.1929   -0.5815 H   0  0  0  0  0  0  0  0  0  0  0  0
    1.2901   -2.1902   -1.6296 H   0  0  0  0  0  0  0  0  0  0  0  0
   -0.1849   -1.3956   -2.1576 H   0  0  0  0  0  0  0  0  0  0  0  0
    3.1132   -2.1291   -0.1285 H   0  0  0  0  0  0  0  0  0  0  0  0
    3.7954   -1.2052    1.1760 H   0  0  0  0  0  0  0  0  0  0  0  0
    3.6455    0.6578   -2.6919 H   0  0  0  0  0  0  0  0  0  0  0  0
    3.0038   -0.9580   -2.5616 H   0  0  0  0  0  0  0  0  0  0  0  0
   -7.5574   -2.7466    0.5963 H   0  0  0  0  0  0  0  0  0  0  0  0
   -7.3396   -2.1193   -1.0259 H   0  0  0  0  0  0  0  0  0  0  0  0
    4.1296    0.7615   -0.3115 H   0  0  0  0  0  0  0  0  0  0  0  0
   -7.2319    1.7526    2.2403 H   0  0  0  0  0  0  0  0  0  0  0  0
   -7.8169    2.9569    1.0872 H   0  0  0  0  0  0  0  0  0  0  0  0
   -6.2079    3.1220    1.7579 H   0  0  0  0  0  0  0  0  0  0  0  0
   -8.9847    1.7036   -0.8610 H   0  0  0  0  0  0  0  0  0  0  0  0
   -9.6622   -1.5143    0.8880 H   0  0  0  0  0  0  0  0  0  0  0  0
   -5.0917   -0.4031   -2.0520 H   0  0  0  0  0  0  0  0  0  0  0  0
   -3.6444    0.3357   -2.6664 H   0  0  0  0  0  0  0  0  0  0  0  0
   -5.0307    1.3570   -2.3201 H   0  0  0  0  0  0  0  0  0  0  0  0
  -10.6266   -0.0366   -0.7888 H   0  0  0  0  0  0  0  0  0  0  0  0
   -9.3303   -0.3636   -1.9339 H   0  0  0  0  0  0  0  0  0  0  0  0
   -9.8190   -3.6931   -0.2779 H   0  0  0  0  0  0  0  0  0  0  0  0
  -11.0694   -2.5780   -0.8496 H   0  0  0  0  0  0  0  0  0  0  0  0
   -9.6389   -2.8909   -1.8479 H   0  0  0  0  0  0  0  0  0  0  0  0
    5.8098   -0.2682    0.7965 H   0  0  0  0  0  0  0  0  0  0  0  0
    7.4942   -1.9839   -1.1086 H   0  0  0  0  0  0  0  0  0  0  0  0
    8.2092   -1.2299    1.7773 H   0  0  0  0  0  0  0  0  0  0  0  0
    7.4870    1.3503    1.1437 H   0  0  0  0  0  0  0  0  0  0  0  0
    9.4987   -0.0529   -0.7340 H   0  0  0  0  0  0  0  0  0  0  0  0
    6.2707   -2.4576    1.4139 H   0  0  0  0  0  0  0  0  0  0  0  0
    9.2330    2.8730    0.2032 H   0  0  0  0  0  0  0  0  0  0  0  0
    8.8145    2.3099   -1.4391 H   0  0  0  0  0  0  0  0  0  0  0  0
    9.0618   -3.1072    0.8070 H   0  0  0  0  0  0  0  0  0  0  0  0
    9.5841    0.6391    2.0261 H   0  0  0  0  0  0  0  0  0  0  0  0
    7.7255    4.2040   -0.8523 H   0  0  0  0  0  0  0  0  0  0  0  0
  1 13  1  0  0  0  0
  1 23  1  0  0  0  0
  2 20  2  0  0  0  0
  3 31  1  0  0  0  0
  3 37  1  0  0  0  0
  4 37  1  0  0  0  0
  4 40  1  0  0  0  0
  5 38  1  0  0  0  0
  5 86  1  0  0  0  0
  6 39  1  0  0  0  0
  6 89  1  0  0  0  0
  7 41  1  0  0  0  0
  7 90  1  0  0  0  0
  8 42  1  0  0  0  0
  8 91  1  0  0  0  0
  9 21  1  0  0  0  0
  9 35  1  0  0  0  0
  9 71  1  0  0  0  0
 10 11  1  0  0  0  0
 10 12  1  0  0  0  0
 10 22  1  0  0  0  0
 10 43  1  0  0  0  0
 11 14  1  0  0  0  0
 11 20  1  0  0  0  0
 11 44  1  0  0  0  0
 12 15  1  0  0  0  0
 12 17  1  0  0  0  0
 12 45  1  0  0  0  0
 13 16  1  0  0  0  0
 13 18  1  0  0  0  0
 13 19  1  0  0  0  0
 14 24  1  0  0  0  0
 14 25  1  0  0  0  0
 14 27  1  0  0  0  0
 15 19  2  0  0  0  0
 15 20  1  0  0  0  0
 16 21  1  0  0  0  0
 16 32  1  0  0  0  0
 16 46  1  0  0  0  0
 17 18  1  0  0  0  0
 17 47  1  0  0  0  0
 17 48  1  0  0  0  0
 18 49  1  0  0  0  0
 18 50  1  0  0  0  0
 19 34  1  0  0  0  0
 21 23  1  0  0  0  0
 21 51  1  0  0  0  0
 22 26  1  0  0  0  0
 22 52  1  0  0  0  0
 22 53  1  0  0  0  0
 23 30  1  0  0  0  0
 23 54  1  0  0  0  0
 24 26  2  0  0  0  0
 24 28  1  0  0  0  0
 25 29  1  0  0  0  0
 25 55  1  0  0  0  0
 25 56  1  0  0  0  0
 26 57  1  0  0  0  0
 27 58  1  0  0  0  0
 27 59  1  0  0  0  0
 27 60  1  0  0  0  0
 28 31  1  0  0  0  0
 28 61  1  0  0  0  0
 28 62  1  0  0  0  0
 29 31  1  0  0  0  0
 29 63  1  0  0  0  0
 29 64  1  0  0  0  0
 30 33  1  0  0  0  0
 30 65  1  0  0  0  0
 30 66  1  0  0  0  0
 31 67  1  0  0  0  0
 32 68  1  0  0  0  0
 32 69  1  0  0  0  0
 32 70  1  0  0  0  0
 33 35  1  0  0  0  0
 33 36  1  0  0  0  0
 33 72  1  0  0  0  0
 34 73  1  0  0  0  0
 34 74  1  0  0  0  0
 34 75  1  0  0  0  0
 35 76  1  0  0  0  0
 35 77  1  0  0  0  0
 36 78  1  0  0  0  0
 36 79  1  0  0  0  0
 36 80  1  0  0  0  0
 37 38  1  0  0  0  0
 37 81  1  0  0  0  0
 38 39  1  0  0  0  0
 38 82  1  0  0  0  0
 39 41  1  0  0  0  0
 39 83  1  0  0  0  0
 40 41  1  0  0  0  0
 40 42  1  0  0  0  0
 40 84  1  0  0  0  0
 41 85  1  0  0  0  0
 42 87  1  0  0  0  0
 42 88  1  0  0  0  0
M  END
> <PUBCHEM_COMPOUND_CID>
16398499

> <PUBCHEM_CONFORMER_RMSD>
1

> <PUBCHEM_CONFORMER_DIVERSEORDER>
1
9
11
24
19
18
22
15
16
10
25
14
12
17
27
20
13
3
4
21
26
2
8
7
5
6
23

> <PUBCHEM_MMFF94_PARTIAL_CHARGES>
37
1 -0.56
11 0.06
12 0.14
13 0.42
14 0.14
15 -0.12
19 -0.28
2 -0.57
20 0.49
21 0.27
22 0.14
23 0.28
24 -0.28
26 -0.29
28 0.14
3 -0.56
31 0.28
34 0.14
35 0.27
37 0.56
38 0.28
39 0.28
4 -0.56
40 0.28
41 0.28
42 0.28
5 -0.68
57 0.15
6 -0.68
7 -0.68
71 0.36
8 -0.68
86 0.4
89 0.4
9 -0.9
90 0.4
91 0.4

> <PUBCHEM_EFFECTIVE_ROTOR_COUNT>
6.8

> <PUBCHEM_PHARMACOPHORE_FEATURES>
21
1 1 acceptor
1 2 acceptor
1 3 acceptor
1 4 acceptor
1 5 acceptor
1 5 donor
1 6 acceptor
1 6 donor
1 7 acceptor
1 7 donor
1 8 acceptor
1 8 donor
1 9 cation
1 9 donor
5 1 13 16 21 23 rings
5 10 11 12 15 20 rings
6 10 11 14 22 24 26 rings
6 12 13 15 17 18 19 rings
6 14 24 25 28 29 31 rings
6 4 37 38 39 40 41 rings
6 9 21 23 30 33 35 rings

> <PUBCHEM_HEAVY_ATOM_COUNT>
42

> <PUBCHEM_ATOM_DEF_STEREO_COUNT>
15

> <PUBCHEM_ATOM_UDEF_STEREO_COUNT>
0

> <PUBCHEM_BOND_DEF_STEREO_COUNT>
0

> <PUBCHEM_BOND_UDEF_STEREO_COUNT>
0

> <PUBCHEM_ISOTOPIC_ATOM_COUNT>
0

> <PUBCHEM_COMPONENT_COUNT>
1

> <PUBCHEM_CACTVS_TAUTO_COUNT>
5

> <PUBCHEM_CONFORMER_ID>
00FA38A300000001

> <PUBCHEM_MMFF94_ENERGY>
117.7422

> <PUBCHEM_FEATURE_SELFOVERLAP>
106.889

> <PUBCHEM_SHAPE_FINGERPRINT>
10 15 16630525107252279070
10162869 55 18411419523337916906
10190206 1 14635136903846276983
106641 1 18131350816960524766
11135926 11 16153430528513906123
11315181 36 18341898485751633721
11409948 35 9222689777596527244
12013929 94 18201438112559594287
12082328 90 18342738477689940581
12089408 11 18412266121089074861
12120059 9 17458063776628744946
12133447 93 14764083224086864904
12202916 173 17676210169060607611
12522641 24 18261107466511834768
12522641 33 17749112175840351554
12838862 33 16081081606601657817
13150687 139 16805326569558671042
13165053 68 18196091272880029967
13560911 43 17704353264933553408
13617811 41 16057166099775512504
13811026 1 17167863054349454572
14117953 113 15646774491723116086
14118638 360 15719666559257011392
14400156 96 18187649176201851772
14849402 71 12391500989197779003
15065858 18 18335415755554396311
15183329 4 15068345601237600856
15247644 1 18343019969357034214
15347591 1 16198482930987707052
15392192 104 17989488511879965398
15461852 350 18411702076008566697
15554971 5 18409453569997317600
15840311 113 18334579053925132556
17686467 74 18060135449331146849
18335252 98 16917073247978018078
18603816 31 18342171216186200727
20105231 36 14477247058696367324
21267235 1 15626223511888880833
21792934 111 17240482516473385940
21792938 131 14635137977809712224
21792938 703 17895480340645624155
21792965 131 18408594868818394975
21895431 317 17896029950710822786
23559900 14 16299251131690876949
23576562 1 14780125220182272999
249057 3 15195276538935929696
3044373 193 18335425660851547236
3092352 35 17989488516238028206
3178227 256 16272209691378095447
335352 9 16153715310251703406
335507 130 16200430273407520129
3383291 50 16443072694533179160
3418910 222 17203339900526121433
3525247 94 18409445886332980250
4173938 188 18411133671178278059
4353968 344 16588299454177976055
44880568 143 18057901155197855400
54583773 228 18059576944114767384
59682541 35 16487536949039634911
6081469 158 13767925711076239278
6126387 218 18260267430790547605
67123 10 18412544314283444994

> <PUBCHEM_SHAPE_MULTIPOLES>
812.4
36.05
2.2
1.78
16.67
0.06
-0.1
7.07
-0.54
0.61
0.01
-0.45
-0.32
-2.25

> <PUBCHEM_SHAPE_SELFOVERLAP>
1749.081

> <PUBCHEM_SHAPE_VOLUME>
442.7

> <PUBCHEM_COORDINATE_TYPE>
2
5
10

$$$$
