135017
  -OEChem-02172602343D

 38 39  0     1  0  0  0  0  0999 V2000
    1.9334   -1.9714   -0.0571 O   0  0  0  0  0  0  0  0  0  0  0  0
    4.4216   -1.0575    0.8084 O   0  0  0  0  0  0  0  0  0  0  0  0
   -5.2491   -1.3889   -0.4607 O   0  0  0  0  0  0  0  0  0  0  0  0
    2.8127    0.2993   -0.3219 C   0  0  2  0  0  0  0  0  0  0  0  0
    2.0298    1.6434   -0.2941 C   0  0  0  0  0  0  0  0  0  0  0  0
    0.6056    1.2380   -0.0745 C   0  0  0  0  0  0  0  0  0  0  0  0
    0.4412   -0.1364    0.0330 C   0  0  0  0  0  0  0  0  0  0  0  0
    1.7437   -0.7687   -0.1066 C   0  0  0  0  0  0  0  0  0  0  0  0
    3.8380    0.2312    0.8112 C   0  0  0  0  0  0  0  0  0  0  0  0
    3.4871    0.0766   -1.6766 C   0  0  0  0  0  0  0  0  0  0  0  0
   -0.7889   -0.7341    0.2384 C   0  0  0  0  0  0  0  0  0  0  0  0
   -0.4971    2.0716    0.0255 C   0  0  0  0  0  0  0  0  0  0  0  0
   -1.8996    0.1034    0.3389 C   0  0  0  0  0  0  0  0  0  0  0  0
   -1.7554    1.4968    0.2335 C   0  0  0  0  0  0  0  0  0  0  0  0
   -3.2586   -0.4846    0.5599 C   0  0  0  0  0  0  0  0  0  0  0  0
   -0.9346   -2.2133    0.3487 C   0  0  0  0  0  0  0  0  0  0  0  0
   -2.9439    2.3974    0.3415 C   0  0  0  0  0  0  0  0  0  0  0  0
   -3.9857   -0.8029   -0.7475 C   0  0  0  0  0  0  0  0  0  0  0  0
    2.1228    2.1904   -1.2388 H   0  0  0  0  0  0  0  0  0  0  0  0
    2.3642    2.2942    0.5213 H   0  0  0  0  0  0  0  0  0  0  0  0
    3.3796    0.3990    1.7922 H   0  0  0  0  0  0  0  0  0  0  0  0
    4.6318    0.9725    0.6734 H   0  0  0  0  0  0  0  0  0  0  0  0
    3.9698   -0.9051   -1.7372 H   0  0  0  0  0  0  0  0  0  0  0  0
    2.7553    0.1180   -2.4920 H   0  0  0  0  0  0  0  0  0  0  0  0
    4.2475    0.8413   -1.8689 H   0  0  0  0  0  0  0  0  0  0  0  0
   -0.3749    3.1474   -0.0564 H   0  0  0  0  0  0  0  0  0  0  0  0
   -3.8882    0.1855    1.1585 H   0  0  0  0  0  0  0  0  0  0  0  0
   -3.2182   -1.3697    1.2066 H   0  0  0  0  0  0  0  0  0  0  0  0
   -1.9358   -2.5892    0.1293 H   0  0  0  0  0  0  0  0  0  0  0  0
   -0.3017   -2.7247   -0.3834 H   0  0  0  0  0  0  0  0  0  0  0  0
   -0.6551   -2.5449    1.3538 H   0  0  0  0  0  0  0  0  0  0  0  0
   -3.3619    2.3665    1.3528 H   0  0  0  0  0  0  0  0  0  0  0  0
   -2.6726    3.4407    0.1424 H   0  0  0  0  0  0  0  0  0  0  0  0
   -3.7148    2.1352   -0.3881 H   0  0  0  0  0  0  0  0  0  0  0  0
    3.7638   -1.6879    1.1471 H   0  0  0  0  0  0  0  0  0  0  0  0
   -3.4181   -1.5012   -1.3712 H   0  0  0  0  0  0  0  0  0  0  0  0
   -4.1612    0.0985   -1.3417 H   0  0  0  0  0  0  0  0  0  0  0  0
   -5.0853   -2.2080    0.0372 H   0  0  0  0  0  0  0  0  0  0  0  0
  1  8  2  0  0  0  0
  2  9  1  0  0  0  0
  2 35  1  0  0  0  0
  3 18  1  0  0  0  0
  3 38  1  0  0  0  0
  4  5  1  0  0  0  0
  4  8  1  0  0  0  0
  4  9  1  0  0  0  0
  4 10  1  0  0  0  0
  5  6  1  0  0  0  0
  5 19  1  0  0  0  0
  5 20  1  0  0  0  0
  6  7  2  0  0  0  0
  6 12  1  0  0  0  0
  7  8  1  0  0  0  0
  7 11  1  0  0  0  0
  9 21  1  0  0  0  0
  9 22  1  0  0  0  0
 10 23  1  0  0  0  0
 10 24  1  0  0  0  0
 10 25  1  0  0  0  0
 11 13  2  0  0  0  0
 11 16  1  0  0  0  0
 12 14  2  0  0  0  0
 12 26  1  0  0  0  0
 13 14  1  0  0  0  0
 13 15  1  0  0  0  0
 14 17  1  0  0  0  0
 15 18  1  0  0  0  0
 15 27  1  0  0  0  0
 15 28  1  0  0  0  0
 16 29  1  0  0  0  0
 16 30  1  0  0  0  0
 16 31  1  0  0  0  0
 17 32  1  0  0  0  0
 17 33  1  0  0  0  0
 17 34  1  0  0  0  0
 18 36  1  0  0  0  0
 18 37  1  0  0  0  0
M  END
> <PUBCHEM_COMPOUND_CID>
135017

> <PUBCHEM_CONFORMER_RMSD>
0.6

> <PUBCHEM_CONFORMER_DIVERSEORDER>
2
3
5
6
1
4

> <PUBCHEM_MMFF94_PARTIAL_CHARGES>
20
1 -0.57
11 -0.14
12 -0.15
13 -0.14
14 -0.14
15 0.14
16 0.14
17 0.14
18 0.28
2 -0.68
26 0.15
3 -0.68
35 0.4
38 0.4
4 0.06
5 0.14
6 -0.14
7 0.09
8 0.42
9 0.28

> <PUBCHEM_EFFECTIVE_ROTOR_COUNT>
3.4

> <PUBCHEM_PHARMACOPHORE_FEATURES>
7
1 1 acceptor
1 2 acceptor
1 2 donor
1 3 acceptor
1 3 donor
5 4 5 6 7 8 rings
6 6 7 11 12 13 14 rings

> <PUBCHEM_HEAVY_ATOM_COUNT>
18

> <PUBCHEM_ATOM_DEF_STEREO_COUNT>
1

> <PUBCHEM_ATOM_UDEF_STEREO_COUNT>
0

> <PUBCHEM_BOND_DEF_STEREO_COUNT>
0

> <PUBCHEM_BOND_UDEF_STEREO_COUNT>
0

> <PUBCHEM_ISOTOPIC_ATOM_COUNT>
0

> <PUBCHEM_COMPONENT_COUNT>
1

> <PUBCHEM_CACTVS_TAUTO_COUNT>
1

> <PUBCHEM_CONFORMER_ID>
00020F6900000002

> <PUBCHEM_MMFF94_ENERGY>
56.8734

> <PUBCHEM_FEATURE_SELFOVERLAP>
35.604

> <PUBCHEM_SHAPE_FINGERPRINT>
10062212 137 18335135341540102785
10967382 1 18266181806081872825
11132069 177 18339926991560051713
11206711 2 18408611348659682901
11806522 49 18411415137575011885
12403260 363 18410005546393518368
12553582 1 18338251447729679097
13140716 1 18122349244044447923
13296908 3 17775010042117645412
13538477 17 18042129906875066130
13583140 156 14548467868888384539
13690532 89 18335415790030276443
13760787 5 17895203202746799717
13862211 1 18411133680079363995
14115302 16 17894915178050594238
14144814 61 18408047299046752240
14178342 30 18269551633248822672
14289901 80 15841555197055066691
14787075 74 17845083146542973528
15196674 1 18410573951140021896
15536298 74 18198625436828700762
15848700 24 18343305902429546316
16752209 62 18408040697586929793
16945 1 18337682995717488176
17349148 13 18334002895886959506
17804303 29 18339643335525587504
17862501 102 18409441475289998714
18186145 218 17917159281780404368
19026448 4 16558755576655069264
192875 21 18261387866681064972
200 152 18412537730562706607
20510252 161 18273218581705128249
21029758 11 18342453785661639889
21267235 1 18410300215367558338
21501502 16 18336834069614157161
21501925 9 18409725175350022872
221490 88 17832425672254029723
2334 1 17690005956144155091
23402539 116 18340759399466828823
23419403 2 17702074015831112537
23463225 33 18260551083009351664
23557571 272 17917993862640089232
23559900 14 18338514265616726560
2748010 2 18193568765366559349
2871803 45 18411136956980642303
3286 77 18408315601401165436
34934 24 18123467443217444108
4340502 62 15051733126844857198
43471831 8 18263362507997524395
474 4 16880215552889994876
5104073 3 18411136901156806120
57096353 35 18262249883797228884
69090 78 18201998867146151063
9709674 26 18411989039558336198

> <PUBCHEM_SHAPE_MULTIPOLES>
352.82
7.75
2.26
0.93
1.86
0.41
0.21
-2.23
0.66
1.23
-0.17
-0.57
-0.06
-0.58

> <PUBCHEM_SHAPE_SELFOVERLAP>
753.7

> <PUBCHEM_SHAPE_VOLUME>
200.9

> <PUBCHEM_COORDINATE_TYPE>
2
5
10

$$$$
