10035557
  -OEChem-02172602593D

 35 34  0     0  0  0  0  0  0999 V2000
   -1.3023   -1.0391    0.0928 N   0  0  0  0  0  0  0  0  0  0  0  0
    1.0151   -0.6922    0.2927 N   0  0  0  0  0  0  0  0  0  0  0  0
    0.0864   -2.5681   -0.8748 N   0  0  0  0  0  0  0  0  0  0  0  0
   -1.7154    0.1296    0.8278 C   0  0  0  0  0  0  0  0  0  0  0  0
   -3.2114    0.1604    0.8825 C   0  0  0  0  0  0  0  0  0  0  0  0
   -4.0561    0.7486    0.0139 C   0  0  0  0  0  0  0  0  0  0  0  0
    2.3567   -1.1688   -0.0162 C   0  0  0  0  0  0  0  0  0  0  0  0
    3.9359    0.8369    0.0090 C   0  0  0  0  0  0  0  0  0  0  0  0
    0.0153   -1.4006   -0.1433 C   0  0  0  0  0  0  0  0  0  0  0  0
    3.3683   -0.2416    0.5816 C   0  0  0  0  0  0  0  0  0  0  0  0
   -5.5542    0.7427    0.1266 C   0  0  0  0  0  0  0  0  0  0  0  0
   -3.5247    1.4979   -1.1790 C   0  0  0  0  0  0  0  0  0  0  0  0
    4.9732    1.6377    0.7500 C   0  0  0  0  0  0  0  0  0  0  0  0
    3.6132    1.3564   -1.3636 C   0  0  0  0  0  0  0  0  0  0  0  0
   -1.3304    0.0817    1.8533 H   0  0  0  0  0  0  0  0  0  0  0  0
   -1.3000    1.0397    0.3842 H   0  0  0  0  0  0  0  0  0  0  0  0
   -3.6485   -0.3678    1.7290 H   0  0  0  0  0  0  0  0  0  0  0  0
   -2.0318   -1.6394   -0.2834 H   0  0  0  0  0  0  0  0  0  0  0  0
    2.5216   -2.1663    0.4101 H   0  0  0  0  0  0  0  0  0  0  0  0
    2.5077   -1.2504   -1.0987 H   0  0  0  0  0  0  0  0  0  0  0  0
    3.6772   -0.5071    1.5920 H   0  0  0  0  0  0  0  0  0  0  0  0
   -6.0015    0.2562   -0.7460 H   0  0  0  0  0  0  0  0  0  0  0  0
   -5.8889    0.2032    1.0187 H   0  0  0  0  0  0  0  0  0  0  0  0
   -5.9360    1.7666    0.1919 H   0  0  0  0  0  0  0  0  0  0  0  0
   -3.6890    2.5727   -1.0490 H   0  0  0  0  0  0  0  0  0  0  0  0
   -2.4627    1.3389   -1.3779 H   0  0  0  0  0  0  0  0  0  0  0  0
   -4.0559    1.1802   -2.0836 H   0  0  0  0  0  0  0  0  0  0  0  0
    5.9132    1.6507    0.1886 H   0  0  0  0  0  0  0  0  0  0  0  0
    4.6325    2.6699    0.8822 H   0  0  0  0  0  0  0  0  0  0  0  0
    5.1859    1.2286    1.7432 H   0  0  0  0  0  0  0  0  0  0  0  0
    4.4916    1.2788   -2.0125 H   0  0  0  0  0  0  0  0  0  0  0  0
    2.7925    0.8177   -1.8443 H   0  0  0  0  0  0  0  0  0  0  0  0
    3.3167    2.4093   -1.3079 H   0  0  0  0  0  0  0  0  0  0  0  0
   -0.7539   -3.0524   -1.1715 H   0  0  0  0  0  0  0  0  0  0  0  0
    0.9702   -2.9864   -1.1419 H   0  0  0  0  0  0  0  0  0  0  0  0
  1  4  1  0  0  0  0
  1  9  1  0  0  0  0
  1 18  1  0  0  0  0
  2  7  1  0  0  0  0
  2  9  2  0  0  0  0
  3  9  1  0  0  0  0
  3 34  1  0  0  0  0
  3 35  1  0  0  0  0
  4  5  1  0  0  0  0
  4 15  1  0  0  0  0
  4 16  1  0  0  0  0
  5  6  2  0  0  0  0
  5 17  1  0  0  0  0
  6 11  1  0  0  0  0
  6 12  1  0  0  0  0
  7 10  1  0  0  0  0
  7 19  1  0  0  0  0
  7 20  1  0  0  0  0
  8 10  2  0  0  0  0
  8 13  1  0  0  0  0
  8 14  1  0  0  0  0
 10 21  1  0  0  0  0
 11 22  1  0  0  0  0
 11 23  1  0  0  0  0
 11 24  1  0  0  0  0
 12 25  1  0  0  0  0
 12 26  1  0  0  0  0
 12 27  1  0  0  0  0
 13 28  1  0  0  0  0
 13 29  1  0  0  0  0
 13 30  1  0  0  0  0
 14 31  1  0  0  0  0
 14 32  1  0  0  0  0
 14 33  1  0  0  0  0
M  END
> <PUBCHEM_COMPOUND_CID>
10035557

> <PUBCHEM_CONFORMER_RMSD>
0.8

> <PUBCHEM_CONFORMER_DIVERSEORDER>
1
82
67
9
51
46
97
100
163
4
39
124
88
77
83
86
148
139
126
128
167
66
43
72
73
68
144
81
36
95
93
21
138
106
13
10
129
154
63
29
2
27
169
47
120
5
172
143
102
18
28
134
127
34
115
79
132
49
123
150
20
37
147
107
61
50
113
146
166
85
152
14
136
76
108
170
92
137
60
7
111
42
59
65
89
40
8
57
35
157
87
90
158
80
25
141
118
31
22
33
54
62
165
112
99
151
140
160
69
109
131
6
149
110
16
171
12
104
155
156
135
121
145
75
17
168
26
32
71
133
74
55
162
105
98
3
125
23
114
119
48
103
19
96
45
159
15
78
122
130
11
94
142
58
116
24
117
153
164
53
64
91
41
56
101
70
52
38
84
44
161
30

> <PUBCHEM_MMFF94_PARTIAL_CHARGES>
19
1 -0.82
10 -0.29
11 0.14
12 0.14
13 0.14
14 0.14
17 0.15
18 0.4
2 -0.7
21 0.15
3 -0.85
34 0.4
35 0.4
4 0.51
5 -0.29
6 -0.28
7 0.38
8 -0.28
9 0.55

> <PUBCHEM_EFFECTIVE_ROTOR_COUNT>
5

> <PUBCHEM_PHARMACOPHORE_FEATURES>
5
1 1 donor
1 3 donor
3 6 11 12 hydrophobe
3 8 13 14 hydrophobe
4 1 2 3 9 cation

> <PUBCHEM_HEAVY_ATOM_COUNT>
14

> <PUBCHEM_ATOM_DEF_STEREO_COUNT>
0

> <PUBCHEM_ATOM_UDEF_STEREO_COUNT>
0

> <PUBCHEM_BOND_DEF_STEREO_COUNT>
0

> <PUBCHEM_BOND_UDEF_STEREO_COUNT>
0

> <PUBCHEM_ISOTOPIC_ATOM_COUNT>
0

> <PUBCHEM_COMPONENT_COUNT>
1

> <PUBCHEM_CACTVS_TAUTO_COUNT>
2

> <PUBCHEM_CONFORMER_ID>
0099216500000001

> <PUBCHEM_MMFF94_ENERGY>
21.7207

> <PUBCHEM_FEATURE_SELFOVERLAP>
25.428

> <PUBCHEM_SHAPE_FINGERPRINT>
10498660 4 18201725088993304768
11128504 68 16988841687453145489
11543360 7 14692566645746379632
122479 349 18261396688828909738
12616999 72 14261355747870909916
13081056 2 18334859364153140333
14123255 52 18412543240937221018
1420 369 8142093061021229704
14251732 14 15841257268522973181
14251764 38 17968094158038043493
14252887 29 11241972590347808182
14455015 7 10447925096619752013
14576447 43 11527959954389681124
14774955 27 18409166627474381317
15188451 53 14852179489424585785
15885798 251 10737283541373170191
17834072 32 18341334478117945024
17834072 8 18343311349402794814
1798214 20 10952054429055393580
19782 4 18335697239026173692
20281475 54 8646472025656676331
204376 136 18341895182162341947
20621476 91 17604730987696689131
20645477 56 18200318856797853426
20767249 442 18413671327072120704
20871999 31 17131538557406336575
21499 59 18272930501284870303
21524375 3 18412826867413413898
22926399 37 18202565055963674425
231179 274 18335422365878284336
23402655 69 17775565333922546050
3004659 81 11383835969793411840
328317 168 18201717366383552553
351380 180 17749106677854437357
351380 3 9079118856023067584
4325135 7 18341330072320191527
548570 60 18261110759818190521
59345606 38 18412824711371122504
633830 44 17703242701895630575
81539 233 18339081492925272247
94968 8 10375872974660166604

> <PUBCHEM_SHAPE_MULTIPOLES>
273.17
11.54
1.96
1.07
3.03
0.67
-0.18
-7.87
0.88
-0.93
-0.62
-0.18
-0.26
0.35

> <PUBCHEM_SHAPE_SELFOVERLAP>
512.362

> <PUBCHEM_SHAPE_VOLUME>
168.3

> <PUBCHEM_COORDINATE_TYPE>
2
5
10

$$$$
