45268797
  -OEChem-02172602593D

 35 34  0     0  0  0  0  0  0999 V2000
    0.0192   -0.9966    0.0158 N   0  0  0  0  0  0  0  0  0  0  0  0
    0.8668   -3.0274   -0.8891 N   0  0  0  0  0  0  0  0  0  0  0  0
   -0.6702   -3.1505    0.8327 N   0  0  0  0  0  0  0  0  0  0  0  0
   -0.8442   -0.2362    0.9321 C   0  0  0  0  0  0  0  0  0  0  0  0
    0.8239   -0.2263   -0.8986 C   0  0  0  0  0  0  0  0  0  0  0  0
   -2.1744   -0.0258    0.2777 C   0  0  0  0  0  0  0  0  0  0  0  0
    2.1556    0.0350   -0.2660 C   0  0  0  0  0  0  0  0  0  0  0  0
   -2.7758    1.1444   -0.0101 C   0  0  0  0  0  0  0  0  0  0  0  0
    2.7189    1.2275    0.0068 C   0  0  0  0  0  0  0  0  0  0  0  0
    0.0416   -2.4089    0.0225 C   0  0  0  0  0  0  0  0  0  0  0  0
   -4.1176    1.2870   -0.6707 C   0  0  0  0  0  0  0  0  0  0  0  0
   -2.1129    2.4498    0.3410 C   0  0  0  0  0  0  0  0  0  0  0  0
    4.0648    1.4216    0.6458 C   0  0  0  0  0  0  0  0  0  0  0  0
    2.0043    2.5065   -0.3399 C   0  0  0  0  0  0  0  0  0  0  0  0
   -0.9904   -0.7896    1.8670 H   0  0  0  0  0  0  0  0  0  0  0  0
   -0.3428    0.6916    1.2172 H   0  0  0  0  0  0  0  0  0  0  0  0
    0.9554   -0.7143   -1.8698 H   0  0  0  0  0  0  0  0  0  0  0  0
    0.2962    0.6996   -1.1446 H   0  0  0  0  0  0  0  0  0  0  0  0
   -2.7107   -0.9376    0.0166 H   0  0  0  0  0  0  0  0  0  0  0  0
    2.7318   -0.8535   -0.0097 H   0  0  0  0  0  0  0  0  0  0  0  0
   -4.8212    1.7965   -0.0046 H   0  0  0  0  0  0  0  0  0  0  0  0
   -4.0269    1.8655   -1.5957 H   0  0  0  0  0  0  0  0  0  0  0  0
   -4.5458    0.3123   -0.9270 H   0  0  0  0  0  0  0  0  0  0  0  0
   -1.5019    2.8009   -0.4967 H   0  0  0  0  0  0  0  0  0  0  0  0
   -2.8687    3.2164    0.5480 H   0  0  0  0  0  0  0  0  0  0  0  0
   -1.4948    2.3986    1.2404 H   0  0  0  0  0  0  0  0  0  0  0  0
    4.7391    1.9528   -0.0335 H   0  0  0  0  0  0  0  0  0  0  0  0
    3.9676    2.0010    1.5696 H   0  0  0  0  0  0  0  0  0  0  0  0
    4.5320    0.4643    0.8995 H   0  0  0  0  0  0  0  0  0  0  0  0
    1.3406    2.8043    0.4779 H   0  0  0  0  0  0  0  0  0  0  0  0
    2.7248    3.3175   -0.4969 H   0  0  0  0  0  0  0  0  0  0  0  0
    1.4301    2.4404   -1.2678 H   0  0  0  0  0  0  0  0  0  0  0  0
    1.5445   -2.5363   -1.4578 H   0  0  0  0  0  0  0  0  0  0  0  0
    0.9073   -4.0402   -0.9383 H   0  0  0  0  0  0  0  0  0  0  0  0
   -0.4740   -4.1375    0.6341 H   0  0  0  0  0  0  0  0  0  0  0  0
  1  4  1  0  0  0  0
  1  5  1  0  0  0  0
  1 10  1  0  0  0  0
  2 10  1  0  0  0  0
  2 33  1  0  0  0  0
  2 34  1  0  0  0  0
  3 10  2  0  0  0  0
  3 35  1  0  0  0  0
  4  6  1  0  0  0  0
  4 15  1  0  0  0  0
  4 16  1  0  0  0  0
  5  7  1  0  0  0  0
  5 17  1  0  0  0  0
  5 18  1  0  0  0  0
  6  8  2  0  0  0  0
  6 19  1  0  0  0  0
  7  9  2  0  0  0  0
  7 20  1  0  0  0  0
  8 11  1  0  0  0  0
  8 12  1  0  0  0  0
  9 13  1  0  0  0  0
  9 14  1  0  0  0  0
 11 21  1  0  0  0  0
 11 22  1  0  0  0  0
 11 23  1  0  0  0  0
 12 24  1  0  0  0  0
 12 25  1  0  0  0  0
 12 26  1  0  0  0  0
 13 27  1  0  0  0  0
 13 28  1  0  0  0  0
 13 29  1  0  0  0  0
 14 30  1  0  0  0  0
 14 31  1  0  0  0  0
 14 32  1  0  0  0  0
M  END
> <PUBCHEM_COMPOUND_CID>
45268797

> <PUBCHEM_CONFORMER_RMSD>
1

> <PUBCHEM_CONFORMER_DIVERSEORDER>
2
50
44
53
1
26
17
72
64
63
11
99
94
84
19
22
56
67
7
4
78
57
93
73
91
79
31
27
98
85
103
69
34
29
33
97
68
77
76
96
54
95
71
47
13
48
101
92
14
66
43
39
86
9
25
52
35
15
80
45
40
61
30
5
23
83
3
100
51
38
55
28
82
102
41
37
60
87
36
16
18
10
70
88
65
90
12
20
6
74
21
81
46
32
59
24
49
8
62
89
75
42
58

> <PUBCHEM_MMFF94_PARTIAL_CHARGES>
19
1 -0.79
10 0.55
11 0.14
12 0.14
13 0.14
14 0.14
19 0.15
2 -0.85
20 0.15
3 -0.85
33 0.4
34 0.4
35 0.4
4 0.51
5 0.51
6 -0.29
7 -0.29
8 -0.28
9 -0.28

> <PUBCHEM_EFFECTIVE_ROTOR_COUNT>
5

> <PUBCHEM_PHARMACOPHORE_FEATURES>
5
1 2 donor
1 3 donor
3 8 11 12 hydrophobe
3 9 13 14 hydrophobe
4 1 2 3 10 cation

> <PUBCHEM_HEAVY_ATOM_COUNT>
14

> <PUBCHEM_ATOM_DEF_STEREO_COUNT>
0

> <PUBCHEM_ATOM_UDEF_STEREO_COUNT>
0

> <PUBCHEM_BOND_DEF_STEREO_COUNT>
0

> <PUBCHEM_BOND_UDEF_STEREO_COUNT>
0

> <PUBCHEM_ISOTOPIC_ATOM_COUNT>
0

> <PUBCHEM_COMPONENT_COUNT>
1

> <PUBCHEM_CACTVS_TAUTO_COUNT>
1

> <PUBCHEM_CONFORMER_ID>
02B2BF3D00000002

> <PUBCHEM_MMFF94_ENERGY>
27.1056

> <PUBCHEM_FEATURE_SELFOVERLAP>
25.42

> <PUBCHEM_SHAPE_FINGERPRINT>
10871710 139 16819980070386540629
11357001 24 17974287921779908226
12500047 106 18269268127332797104
13380535 76 18410854369206468610
13618510 140 18410859853980536612
14250199 8 18123471575387478637
15852999 172 18060140976847956884
18186145 218 18200328657364635532
20671657 1 18124036728352920735
20671657 53 17551235069179800327
212916 134 18199444680629399056
21499 59 18411130338351838021
21524375 3 18410852170188487812
220403 375 18411142449922424098
23402539 116 18198051689322255399
23598291 2 17625827059194827381
23598294 1 17832718137624120570
257057 1 17256240445764018075
2748010 2 18266200429033720558
305870 269 18336262345158640200
5706482 22 18338792411529344914
58051976 378 18411696582909016287
6333272 397 18410012152179872073
7364860 26 18124876755167989303
7832392 63 17402895523181001801
81228 2 17765451124133171026
81539 233 18335415717010544829
84936 182 18128815244299750992
90316 7 17690849281737077162

> <PUBCHEM_SHAPE_MULTIPOLES>
273.17
5.78
3.59
0.9
0.27
2.6
0
-5.49
-0.04
-0.17
0.02
0.01
0.16
0.52

> <PUBCHEM_SHAPE_SELFOVERLAP>
515.61

> <PUBCHEM_SHAPE_VOLUME>
167.6

> <PUBCHEM_COORDINATE_TYPE>
2
5
10

$$$$
