10091880
  -OEChem-02172602533D

 40 42  0     0  0  0  0  0  0999 V2000
   -3.0259   -2.3395    1.8799 Cl  0  0  0  0  0  0  0  0  0  0  0  0
    3.4614    1.2375    0.2728 S   0  0  0  0  0  0  0  0  0  0  0  0
    4.1846    2.3524   -0.3091 O   0  0  0  0  0  0  0  0  0  0  0  0
    3.3718    1.0553    1.7089 O   0  0  0  0  0  0  0  0  0  0  0  0
    1.8256   -1.6779    1.8843 O   0  0  0  0  0  0  0  0  0  0  0  0
    1.4610    1.4837   -1.6118 N   0  0  0  0  0  0  0  0  0  0  0  0
    0.7591    1.4513    0.4574 N   0  0  0  0  0  0  0  0  0  0  0  0
    1.5107   -1.8391   -0.4367 N   0  0  0  0  0  0  0  0  0  0  0  0
    0.1302    1.5986   -1.7370 N   0  0  0  0  0  0  0  0  0  0  0  0
   -4.2982    1.8543    0.7315 N   0  0  0  0  0  0  0  0  0  0  0  0
    4.0109   -0.2699   -0.4661 C   0  0  0  0  0  0  0  0  0  0  0  0
    3.7246   -1.4772    0.4117 C   0  0  0  0  0  0  0  0  0  0  0  0
    1.7787    1.4017   -0.3216 C   0  0  0  0  0  0  0  0  0  0  0  0
    2.2467   -1.6664    0.7324 C   0  0  0  0  0  0  0  0  0  0  0  0
   -0.2475    1.5741   -0.4571 C   0  0  0  0  0  0  0  0  0  0  0  0
   -1.6217    1.6695   -0.0539 C   0  0  0  0  0  0  0  0  0  0  0  0
    0.1152   -2.0427   -0.5553 C   0  0  0  0  0  0  0  0  0  0  0  0
   -0.6642   -2.0835    0.5887 C   0  0  0  0  0  0  0  0  0  0  0  0
   -0.4409   -2.1981   -1.8142 C   0  0  0  0  0  0  0  0  0  0  0  0
   -2.6232    1.7932   -1.0107 C   0  0  0  0  0  0  0  0  0  0  0  0
   -1.9571    1.6380    1.2952 C   0  0  0  0  0  0  0  0  0  0  0  0
   -2.0392   -2.2855    0.4707 C   0  0  0  0  0  0  0  0  0  0  0  0
   -1.8159   -2.4002   -1.9324 C   0  0  0  0  0  0  0  0  0  0  0  0
   -2.6151   -2.4438   -0.7899 C   0  0  0  0  0  0  0  0  0  0  0  0
   -3.9338    1.8813   -0.5702 C   0  0  0  0  0  0  0  0  0  0  0  0
   -3.2977    1.7330    1.6326 C   0  0  0  0  0  0  0  0  0  0  0  0
    5.0960   -0.1725   -0.5856 H   0  0  0  0  0  0  0  0  0  0  0  0
    3.5895   -0.3511   -1.4710 H   0  0  0  0  0  0  0  0  0  0  0  0
    4.2689   -1.3997    1.3605 H   0  0  0  0  0  0  0  0  0  0  0  0
    4.0844   -2.3868   -0.0838 H   0  0  0  0  0  0  0  0  0  0  0  0
    2.0415    1.4720   -2.4428 H   0  0  0  0  0  0  0  0  0  0  0  0
    2.0166   -1.8371   -1.3191 H   0  0  0  0  0  0  0  0  0  0  0  0
   -0.2800   -1.9634    1.5909 H   0  0  0  0  0  0  0  0  0  0  0  0
    0.1724   -2.1641   -2.7103 H   0  0  0  0  0  0  0  0  0  0  0  0
   -2.4217    1.8216   -2.0765 H   0  0  0  0  0  0  0  0  0  0  0  0
   -1.2154    1.5408    2.0812 H   0  0  0  0  0  0  0  0  0  0  0  0
   -2.2645   -2.5220   -2.9139 H   0  0  0  0  0  0  0  0  0  0  0  0
   -3.6853   -2.6003   -0.8973 H   0  0  0  0  0  0  0  0  0  0  0  0
   -4.7521    1.9778   -1.2763 H   0  0  0  0  0  0  0  0  0  0  0  0
   -3.6120    1.7117    2.6710 H   0  0  0  0  0  0  0  0  0  0  0  0
  1 22  1  0  0  0  0
  2  3  2  0  0  0  0
  2  4  2  0  0  0  0
  2 11  1  0  0  0  0
  2 13  1  0  0  0  0
  5 14  2  0  0  0  0
  6  9  1  0  0  0  0
  6 13  1  0  0  0  0
  6 31  1  0  0  0  0
  7 13  2  0  0  0  0
  7 15  1  0  0  0  0
  8 14  1  0  0  0  0
  8 17  1  0  0  0  0
  8 32  1  0  0  0  0
  9 15  2  0  0  0  0
 10 25  2  0  0  0  0
 10 26  1  0  0  0  0
 11 12  1  0  0  0  0
 11 27  1  0  0  0  0
 11 28  1  0  0  0  0
 12 14  1  0  0  0  0
 12 29  1  0  0  0  0
 12 30  1  0  0  0  0
 15 16  1  0  0  0  0
 16 20  2  0  0  0  0
 16 21  1  0  0  0  0
 17 18  2  0  0  0  0
 17 19  1  0  0  0  0
 18 22  1  0  0  0  0
 18 33  1  0  0  0  0
 19 23  2  0  0  0  0
 19 34  1  0  0  0  0
 20 25  1  0  0  0  0
 20 35  1  0  0  0  0
 21 26  2  0  0  0  0
 21 36  1  0  0  0  0
 22 24  2  0  0  0  0
 23 24  1  0  0  0  0
 23 37  1  0  0  0  0
 24 38  1  0  0  0  0
 25 39  1  0  0  0  0
 26 40  1  0  0  0  0
M  END
> <PUBCHEM_COMPOUND_CID>
10091880

> <PUBCHEM_CONFORMER_RMSD>
1

> <PUBCHEM_CONFORMER_DIVERSEORDER>
5
6
8
208
1
38
496
309
413
306
164
33
214
36
351
504
26
12
125
169
517
106
7
594
31
41
79
49
72
336
115
48
418
340
283
28
379
75
530
222
560
281
42
68
62
354
546
61
187
27
223
507
205
73
291
133
147
15
78
321
251
76
65
102
30
273
330
17
104
9
25
293
408
298
24
269
142
130
121
155
522
282
14
274
390
37
29
2
91
18
69
421
342
231
21
80
362
237
290
263
553
64
154
22
150
203
350
279
95
13
338
16
55
324
228
167
386
52
19
39
280
138
363
462
434
189
58
331
234
111
97
34
323
158
81
508
513
343
66
10
43
248
312
170
215
275
128
292
212
385
317
132
87
11
302
3
32
219
163
383
264
89
67
515
57
296
20
335
357
377
146
344
198
255
148
74
180
252
202

> <PUBCHEM_MMFF94_PARTIAL_CHARGES>
36
1 -0.18
10 -0.62
11 0.11
12 0.06
13 0.12
14 0.57
15 0.46
16 0.05
17 0.12
18 -0.15
19 -0.15
2 1.26
20 -0.15
21 -0.15
22 0.18
23 -0.15
24 -0.15
25 0.16
26 0.16
3 -0.65
31 0.27
32 0.37
33 0.15
34 0.15
35 0.15
36 0.15
37 0.15
38 0.15
39 0.15
4 -0.65
40 0.15
5 -0.57
6 0.3
7 -0.57
8 -0.55
9 -0.71

> <PUBCHEM_EFFECTIVE_ROTOR_COUNT>
7

> <PUBCHEM_PHARMACOPHORE_FEATURES>
11
1 10 acceptor
1 3 acceptor
1 4 acceptor
1 5 acceptor
1 6 donor
1 8 donor
3 6 7 13 cation
3 7 9 15 cation
5 6 7 9 13 15 rings
6 10 16 20 21 25 26 rings
6 17 18 19 22 23 24 rings

> <PUBCHEM_HEAVY_ATOM_COUNT>
26

> <PUBCHEM_ATOM_DEF_STEREO_COUNT>
0

> <PUBCHEM_ATOM_UDEF_STEREO_COUNT>
0

> <PUBCHEM_BOND_DEF_STEREO_COUNT>
0

> <PUBCHEM_BOND_UDEF_STEREO_COUNT>
0

> <PUBCHEM_ISOTOPIC_ATOM_COUNT>
0

> <PUBCHEM_COMPONENT_COUNT>
1

> <PUBCHEM_CACTVS_TAUTO_COUNT>
8

> <PUBCHEM_CONFORMER_ID>
0099FD6800000005

> <PUBCHEM_MMFF94_ENERGY>
53.2825

> <PUBCHEM_FEATURE_SELFOVERLAP>
58.693

> <PUBCHEM_SHAPE_FINGERPRINT>
10064457 181 18272373014397941848
104564 63 18267582592538263742
10871710 139 18194968667065033460
1100329 8 18337947883984195418
11370993 70 18269834220790932849
12011746 2 18120097182422386726
12422481 6 18195556807740430203
12553582 1 17834398195501745580
12633257 1 18267296548085550530
12788726 201 17835804466832508908
13140716 1 18409727340250819546
14081887 123 17914879066595016264
14464042 87 18270953670047228767
16752209 62 18268988863567632430
17138139 8 17699527534358647181
17492 54 18191288400226574895
20691752 17 17821441370592579630
20905425 154 18193864715016443499
21197605 99 18411991256716067843
21236236 1 18338795749600206976
23419403 2 15981988258640092443
23558518 356 18047472511326597096
238 59 17615655493900018085
2818148 4 18187083906586021882
3052486 1 18115322175369249566
35225 105 18059281115510282297
4340502 62 18270977739270971113
469060 322 17095801134899657934
474 4 17984703307988482265
6287921 2 17413591641157713711
6438718 38 18272366477420976103
7064713 232 18128246796888073161

> <PUBCHEM_SHAPE_MULTIPOLES>
498.27
7.11
3.89
1.79
2.57
1.08
-0.05
-2.94
-1.74
-2.15
0.28
-0.75
0.52
-0.51

> <PUBCHEM_SHAPE_SELFOVERLAP>
1058.278

> <PUBCHEM_SHAPE_VOLUME>
279.4

> <PUBCHEM_COORDINATE_TYPE>
2
5
10

$$$$
