68401
  -OEChem-02172602553D

 11 11  0     0  0  0  0  0  0999 V2000
   -2.2443   -0.1198    0.0000 O   0  0  0  0  0  0  0  0  0  0  0  0
   -0.2243   -1.1749    0.0000 N   0  0  0  0  0  0  0  0  0  0  0  0
   -0.3739    1.2009    0.0000 N   0  0  0  0  0  0  0  0  0  0  0  0
    1.1430   -1.1292    0.0000 C   0  0  0  0  0  0  0  0  0  0  0  0
    1.7955    0.0331    0.0000 C   0  0  0  0  0  0  0  0  0  0  0  0
   -1.0160   -0.0274    0.0000 C   0  0  0  0  0  0  0  0  0  0  0  0
    0.9201    1.2173    0.0000 C   0  0  0  0  0  0  0  0  0  0  0  0
   -0.6723   -2.0863    0.0001 H   0  0  0  0  0  0  0  0  0  0  0  0
    1.6519   -2.0846    0.0000 H   0  0  0  0  0  0  0  0  0  0  0  0
    2.8706    0.1329    0.0000 H   0  0  0  0  0  0  0  0  0  0  0  0
    1.4418    2.1878    0.0000 H   0  0  0  0  0  0  0  0  0  0  0  0
  1  6  2  0  0  0  0
  2  4  1  0  0  0  0
  2  6  1  0  0  0  0
  2  8  1  0  0  0  0
  3  6  1  0  0  0  0
  3  7  2  0  0  0  0
  4  5  2  0  0  0  0
  4  9  1  0  0  0  0
  5  7  1  0  0  0  0
  5 10  1  0  0  0  0
  7 11  1  0  0  0  0
M  END
> <PUBCHEM_COMPOUND_CID>
68401

> <PUBCHEM_CONFORMER_RMSD>
0.4

> <PUBCHEM_CONFORMER_DIVERSEORDER>
1

> <PUBCHEM_MMFF94_PARTIAL_CHARGES>
11
1 -0.57
10 0.15
11 0.06
2 -0.54
3 -0.66
4 -0.04
5 -0.14
6 0.84
7 0.38
8 0.37
9 0.15

> <PUBCHEM_EFFECTIVE_ROTOR_COUNT>
0

> <PUBCHEM_PHARMACOPHORE_FEATURES>
5
1 1 acceptor
1 2 donor
1 3 acceptor
1 3 donor
6 2 3 4 5 6 7 rings

> <PUBCHEM_HEAVY_ATOM_COUNT>
7

> <PUBCHEM_ATOM_DEF_STEREO_COUNT>
0

> <PUBCHEM_ATOM_UDEF_STEREO_COUNT>
0

> <PUBCHEM_BOND_DEF_STEREO_COUNT>
0

> <PUBCHEM_BOND_UDEF_STEREO_COUNT>
0

> <PUBCHEM_ISOTOPIC_ATOM_COUNT>
0

> <PUBCHEM_COMPONENT_COUNT>
1

> <PUBCHEM_CACTVS_TAUTO_COUNT>
2

> <PUBCHEM_CONFORMER_ID>
00010B3100000001

> <PUBCHEM_MMFF94_ENERGY>
14.6843

> <PUBCHEM_FEATURE_SELFOVERLAP>
25.46

> <PUBCHEM_SHAPE_FINGERPRINT>
16714656 1 9439402462657367970
20096714 4 9222936080573516404
21040471 1 9294704498784823650
23552423 10 10589559816544343424
29004967 10 10591768709286010511

> <PUBCHEM_SHAPE_MULTIPOLES>
128.23
2.19
1.36
0.58
0.66
0.07
0
-0.13
0
-0.29
0
-0.04
0
0

> <PUBCHEM_SHAPE_SELFOVERLAP>
262.642

> <PUBCHEM_SHAPE_VOLUME>
73

> <PUBCHEM_COORDINATE_TYPE>
2
5
10

$$$$
