10850550
  -OEChem-02172602473D

 33 35  0     0  0  0  0  0  0999 V2000
    5.4675    0.1418   -0.0155 S   0  0  0  0  0  0  0  0  0  0  0  0
   -1.5889    2.3631    0.0305 O   0  0  0  0  0  0  0  0  0  0  0  0
    0.6255    1.6651   -0.0012 N   0  0  0  0  0  0  0  0  0  0  0  0
    2.8969    0.8612   -0.0087 N   0  0  0  0  0  0  0  0  0  0  0  0
    3.3636   -1.4993    0.0051 N   0  0  0  0  0  0  0  0  0  0  0  0
   -1.2285    0.0281    0.0168 C   0  0  0  0  0  0  0  0  0  0  0  0
    1.5682    0.5934   -0.0008 C   0  0  0  0  0  0  0  0  0  0  0  0
    1.0865   -0.7063    0.0098 C   0  0  0  0  0  0  0  0  0  0  0  0
   -0.7555    1.4552    0.0134 C   0  0  0  0  0  0  0  0  0  0  0  0
   -0.3400   -0.9766    0.0139 C   0  0  0  0  0  0  0  0  0  0  0  0
   -2.6689   -0.2862    0.0036 C   0  0  0  0  0  0  0  0  0  0  0  0
    1.1624    3.0230   -0.0098 C   0  0  0  0  0  0  0  0  0  0  0  0
    2.0341   -1.7177    0.0120 C   0  0  0  0  0  0  0  0  0  0  0  0
   -3.3584   -0.4460    1.2053 C   0  0  0  0  0  0  0  0  0  0  0  0
   -3.3413   -0.4230   -1.2105 C   0  0  0  0  0  0  0  0  0  0  0  0
    3.7204   -0.2044   -0.0052 C   0  0  0  0  0  0  0  0  0  0  0  0
   -4.7213   -0.7427    1.1929 C   0  0  0  0  0  0  0  0  0  0  0  0
   -4.7042   -0.7196   -1.2229 C   0  0  0  0  0  0  0  0  0  0  0  0
   -5.3941   -0.8796   -0.0211 C   0  0  0  0  0  0  0  0  0  0  0  0
    6.1762   -1.5294   -0.0076 C   0  0  0  0  0  0  0  0  0  0  0  0
   -0.6572   -2.0155    0.0107 H   0  0  0  0  0  0  0  0  0  0  0  0
    1.7716    3.1656   -0.9080 H   0  0  0  0  0  0  0  0  0  0  0  0
    1.7718    3.1762    0.8865 H   0  0  0  0  0  0  0  0  0  0  0  0
    0.3616    3.7675   -0.0144 H   0  0  0  0  0  0  0  0  0  0  0  0
    1.7484   -2.7653    0.0191 H   0  0  0  0  0  0  0  0  0  0  0  0
   -2.8480   -0.3412    2.1597 H   0  0  0  0  0  0  0  0  0  0  0  0
   -2.8175   -0.3003   -2.1554 H   0  0  0  0  0  0  0  0  0  0  0  0
   -5.2587   -0.8669    2.1286 H   0  0  0  0  0  0  0  0  0  0  0  0
   -5.2284   -0.8260   -2.1681 H   0  0  0  0  0  0  0  0  0  0  0  0
   -6.4554   -1.1105   -0.0309 H   0  0  0  0  0  0  0  0  0  0  0  0
    5.8760   -2.0732    0.8924 H   0  0  0  0  0  0  0  0  0  0  0  0
    7.2667   -1.4508   -0.0131 H   0  0  0  0  0  0  0  0  0  0  0  0
    5.8678   -2.0852   -0.8974 H   0  0  0  0  0  0  0  0  0  0  0  0
  1 16  1  0  0  0  0
  1 20  1  0  0  0  0
  2  9  2  0  0  0  0
  3  7  1  0  0  0  0
  3  9  1  0  0  0  0
  3 12  1  0  0  0  0
  4  7  2  0  0  0  0
  4 16  1  0  0  0  0
  5 13  1  0  0  0  0
  5 16  2  0  0  0  0
  6  9  1  0  0  0  0
  6 10  2  0  0  0  0
  6 11  1  0  0  0  0
  7  8  1  0  0  0  0
  8 10  1  0  0  0  0
  8 13  2  0  0  0  0
 10 21  1  0  0  0  0
 11 14  2  0  0  0  0
 11 15  1  0  0  0  0
 12 22  1  0  0  0  0
 12 23  1  0  0  0  0
 12 24  1  0  0  0  0
 13 25  1  0  0  0  0
 14 17  1  0  0  0  0
 14 26  1  0  0  0  0
 15 18  2  0  0  0  0
 15 27  1  0  0  0  0
 17 19  2  0  0  0  0
 17 28  1  0  0  0  0
 18 19  1  0  0  0  0
 18 29  1  0  0  0  0
 19 30  1  0  0  0  0
 20 31  1  0  0  0  0
 20 32  1  0  0  0  0
 20 33  1  0  0  0  0
M  END
> <PUBCHEM_COMPOUND_CID>
10850550

> <PUBCHEM_CONFORMER_RMSD>
0.6

> <PUBCHEM_CONFORMER_DIVERSEORDER>
3
4
2
6
1
5

> <PUBCHEM_MMFF94_PARTIAL_CHARGES>
27
1 -0.33
10 -0.18
11 0.03
12 0.3
13 0.16
14 -0.15
15 -0.15
16 0.72
17 -0.15
18 -0.15
19 -0.15
2 -0.57
20 0.23
21 0.15
25 0.15
26 0.15
27 0.15
28 0.15
29 0.15
3 -0.48
30 0.15
4 -0.62
5 -0.62
6 -0.01
7 0.43
8 0.03
9 0.62

> <PUBCHEM_EFFECTIVE_ROTOR_COUNT>
2

> <PUBCHEM_PHARMACOPHORE_FEATURES>
6
1 2 acceptor
1 20 hydrophobe
3 4 5 16 cation
6 11 14 15 17 18 19 rings
6 3 6 7 8 9 10 rings
6 4 5 7 8 13 16 rings

> <PUBCHEM_HEAVY_ATOM_COUNT>
20

> <PUBCHEM_ATOM_DEF_STEREO_COUNT>
0

> <PUBCHEM_ATOM_UDEF_STEREO_COUNT>
0

> <PUBCHEM_BOND_DEF_STEREO_COUNT>
0

> <PUBCHEM_BOND_UDEF_STEREO_COUNT>
0

> <PUBCHEM_ISOTOPIC_ATOM_COUNT>
0

> <PUBCHEM_COMPONENT_COUNT>
1

> <PUBCHEM_CACTVS_TAUTO_COUNT>
1

> <PUBCHEM_CONFORMER_ID>
00A590F600000003

> <PUBCHEM_MMFF94_ENERGY>
58.0613

> <PUBCHEM_FEATURE_SELFOVERLAP>
30.475

> <PUBCHEM_SHAPE_FINGERPRINT>
11471102 20 18337389443377234613
11796584 16 16732976518365189626
12166972 35 17748831808916905486
12236239 1 17775287205411232511
12553582 1 18412254043224534502
13140716 1 18123189262496292162
13288520 33 18412826871829310687
13544653 18 18408325462471743871
13740256 8 18334861662019075331
13760787 5 18410015471915188005
13862211 1 18411416207291283710
14386348 63 18040719190443692275
15196674 1 18338517439665935048
16945 1 18410856606900468457
17357779 13 18261381252853598245
17492 89 18121215377707305994
1813 80 18200891607318109388
18222031 100 18341603832960534530
18785283 64 17971477556974203932
19489759 90 16008746900846692855
19784866 140 18259982643876924570
200 152 18413103957349425247
20028762 73 18131346457559112246
20612939 158 18337670935808342181
20645477 70 18262793103140292869
21029758 11 18411696595319450184
21029758 27 18334862718533492412
21236236 1 18339643338998109121
21267235 1 18410863144378821662
21641784 216 18042140803339420708
221490 88 18119531187559088219
23175994 123 18259706718240514381
23402539 116 18342173341081142486
23557571 272 18201724999025662892
23559900 14 17603866749159292537
25147074 1 18339378399835742856
26918003 58 18113620096930793963
2748010 2 18268142059357746956
2871803 45 18333729100728453458
314194 84 18412545422628048754
335352 9 18410575101985509735
34797466 226 16226340286549127686
4463277 17 18412265029808757008
465052 167 18341338884902285287
5104073 3 18268706109471415890
542803 24 12973603335203930038
59755656 215 18335140848232307054
602551 16 15123222299409709975
7495541 125 17968668240535450875
77492 1 17703516605525252979

> <PUBCHEM_SHAPE_MULTIPOLES>
394.63
12.02
2.12
0.91
4.27
1.71
-0.01
-6.29
-0.09
1.3
0.01
-1.22
-0.17
0

> <PUBCHEM_SHAPE_SELFOVERLAP>
847.655

> <PUBCHEM_SHAPE_VOLUME>
220.7

> <PUBCHEM_COORDINATE_TYPE>
2
5
10

$$$$
