5318766
  -OEChem-02172602383D

 72 74  0     1  0  0  0  0  0999 V2000
   -0.7494    3.8913   -2.8236 O   0  0  0  0  0  0  0  0  0  0  0  0
   -0.7710   -1.0616    2.2952 O   0  0  0  0  0  0  0  0  0  0  0  0
    1.1649   -1.7651    0.1693 O   0  0  0  0  0  0  0  0  0  0  0  0
   -4.8151   -0.6750   -0.1795 O   0  0  0  0  0  0  0  0  0  0  0  0
    4.7542    1.2341    1.0378 O   0  0  0  0  0  0  0  0  0  0  0  0
   -3.3907   -1.7087    1.9541 O   0  0  0  0  0  0  0  0  0  0  0  0
    3.8190   -1.3257    0.5721 O   0  0  0  0  0  0  0  0  0  0  0  0
    1.5214   -1.3353   -2.0955 O   0  0  0  0  0  0  0  0  0  0  0  0
   -0.9787    3.2894   -1.5292 C   0  0  2  0  0  0  0  0  0  0  0  0
    0.1596    3.8043   -0.5872 C   0  0  2  0  0  0  0  0  0  0  0  0
   -0.9087    1.7632   -1.8119 C   0  0  0  0  0  0  0  0  0  0  0  0
    0.2439    3.0898    0.7794 C   0  0  0  0  0  0  0  0  0  0  0  0
   -1.5138    0.8311   -0.7818 C   0  0  0  0  0  0  0  0  0  0  0  0
    1.1480    1.8759    0.7328 C   0  0  0  0  0  0  0  0  0  0  0  0
   -2.3832    3.7320   -1.0880 C   0  0  0  0  0  0  0  0  0  0  0  0
    0.0865    5.3236   -0.3398 C   0  0  0  0  0  0  0  0  0  0  0  0
   -0.7737    0.2929    0.2936 C   0  0  0  0  0  0  0  0  0  0  0  0
    0.6589    0.5755    0.4931 C   0  0  0  0  0  0  0  0  0  0  0  0
   -2.8717    0.4801   -0.9220 C   0  0  0  0  0  0  0  0  0  0  0  0
    2.5314    2.0741    0.9103 C   0  0  0  0  0  0  0  0  0  0  0  0
   -1.4311   -0.5620    1.2036 C   0  0  0  0  0  0  0  0  0  0  0  0
    1.5815   -0.4903    0.4482 C   0  0  0  0  0  0  0  0  0  0  0  0
   -3.4992   -0.3678   -0.0117 C   0  0  0  0  0  0  0  0  0  0  0  0
    3.4236    1.0055    0.8618 C   0  0  0  0  0  0  0  0  0  0  0  0
   -2.7790   -0.8869    1.0546 C   0  0  0  0  0  0  0  0  0  0  0  0
    2.9482   -0.2783    0.6310 C   0  0  0  0  0  0  0  0  0  0  0  0
   -0.8282   -0.2878    3.4876 C   0  0  0  0  0  0  0  0  0  0  0  0
    1.1757   -2.0840   -1.1920 C   0  0  0  0  0  0  0  0  0  0  0  0
   -5.7666    0.1825    0.4484 C   0  0  0  0  0  0  0  0  0  0  0  0
    5.5237    1.5179   -0.1294 C   0  0  0  0  0  0  0  0  0  0  0  0
   -3.9511   -2.9183    1.4484 C   0  0  0  0  0  0  0  0  0  0  0  0
    4.1034   -2.0001    1.7956 C   0  0  0  0  0  0  0  0  0  0  0  0
    0.7060   -3.4901   -1.3860 C   0  0  0  0  0  0  0  0  0  0  0  0
   -0.3104   -4.0385   -0.4295 C   0  0  0  0  0  0  0  0  0  0  0  0
    1.2248   -4.1398   -2.4441 C   0  0  0  0  0  0  0  0  0  0  0  0
    0.9469   -5.5478   -2.8658 C   0  0  0  0  0  0  0  0  0  0  0  0
    1.1070    3.6558   -1.1267 H   0  0  0  0  0  0  0  0  0  0  0  0
   -1.4130    1.5634   -2.7700 H   0  0  0  0  0  0  0  0  0  0  0  0
    0.1281    1.4711   -2.0267 H   0  0  0  0  0  0  0  0  0  0  0  0
    0.6598    3.7681    1.5377 H   0  0  0  0  0  0  0  0  0  0  0  0
   -0.7477    2.8353    1.1685 H   0  0  0  0  0  0  0  0  0  0  0  0
   -2.4845    4.8226   -1.0978 H   0  0  0  0  0  0  0  0  0  0  0  0
   -2.6388    3.3770   -0.0859 H   0  0  0  0  0  0  0  0  0  0  0  0
   -3.1403    3.3684   -1.7925 H   0  0  0  0  0  0  0  0  0  0  0  0
   -0.7820    5.5924    0.2700 H   0  0  0  0  0  0  0  0  0  0  0  0
    0.0428    5.8883   -1.2753 H   0  0  0  0  0  0  0  0  0  0  0  0
    0.9805    5.6645    0.1953 H   0  0  0  0  0  0  0  0  0  0  0  0
   -1.0014    4.8284   -2.7801 H   0  0  0  0  0  0  0  0  0  0  0  0
   -3.4485    0.8770   -1.7554 H   0  0  0  0  0  0  0  0  0  0  0  0
    2.9140    3.0779    1.0863 H   0  0  0  0  0  0  0  0  0  0  0  0
   -0.1919   -0.7669    4.2369 H   0  0  0  0  0  0  0  0  0  0  0  0
   -0.4589    0.7284    3.3181 H   0  0  0  0  0  0  0  0  0  0  0  0
   -1.8516   -0.2515    3.8737 H   0  0  0  0  0  0  0  0  0  0  0  0
   -5.6866    1.1993    0.0509 H   0  0  0  0  0  0  0  0  0  0  0  0
   -6.7677   -0.2004    0.2322 H   0  0  0  0  0  0  0  0  0  0  0  0
   -5.6218    0.1906    1.5334 H   0  0  0  0  0  0  0  0  0  0  0  0
    6.5635    1.6677    0.1739 H   0  0  0  0  0  0  0  0  0  0  0  0
    5.4813    0.6800   -0.8323 H   0  0  0  0  0  0  0  0  0  0  0  0
    5.1643    2.4323   -0.6122 H   0  0  0  0  0  0  0  0  0  0  0  0
   -5.0285   -2.7968    1.3054 H   0  0  0  0  0  0  0  0  0  0  0  0
   -3.4792   -3.2407    0.5141 H   0  0  0  0  0  0  0  0  0  0  0  0
   -3.7948   -3.7007    2.1969 H   0  0  0  0  0  0  0  0  0  0  0  0
    4.5673   -1.3165    2.5136 H   0  0  0  0  0  0  0  0  0  0  0  0
    3.1900   -2.4280    2.2209 H   0  0  0  0  0  0  0  0  0  0  0  0
    4.8038   -2.8126    1.5839 H   0  0  0  0  0  0  0  0  0  0  0  0
   -1.0958   -3.2981   -0.2507 H   0  0  0  0  0  0  0  0  0  0  0  0
    0.1591   -4.2838    0.5284 H   0  0  0  0  0  0  0  0  0  0  0  0
   -0.8111   -4.9347   -0.8033 H   0  0  0  0  0  0  0  0  0  0  0  0
    1.9458   -3.6293   -3.0808 H   0  0  0  0  0  0  0  0  0  0  0  0
    0.3555   -6.1133   -2.1429 H   0  0  0  0  0  0  0  0  0  0  0  0
    1.8938   -6.0813   -2.9990 H   0  0  0  0  0  0  0  0  0  0  0  0
    0.4179   -5.5508   -3.8236 H   0  0  0  0  0  0  0  0  0  0  0  0
  1  9  1  0  0  0  0
  1 48  1  0  0  0  0
  2 21  1  0  0  0  0
  2 27  1  0  0  0  0
  3 22  1  0  0  0  0
  3 28  1  0  0  0  0
  4 23  1  0  0  0  0
  4 29  1  0  0  0  0
  5 24  1  0  0  0  0
  5 30  1  0  0  0  0
  6 25  1  0  0  0  0
  6 31  1  0  0  0  0
  7 26  1  0  0  0  0
  7 32  1  0  0  0  0
  8 28  2  0  0  0  0
  9 10  1  0  0  0  0
  9 11  1  0  0  0  0
  9 15  1  0  0  0  0
 10 12  1  0  0  0  0
 10 16  1  0  0  0  0
 10 37  1  0  0  0  0
 11 13  1  0  0  0  0
 11 38  1  0  0  0  0
 11 39  1  0  0  0  0
 12 14  1  0  0  0  0
 12 40  1  0  0  0  0
 12 41  1  0  0  0  0
 13 17  1  0  0  0  0
 13 19  2  0  0  0  0
 14 18  1  0  0  0  0
 14 20  2  0  0  0  0
 15 42  1  0  0  0  0
 15 43  1  0  0  0  0
 15 44  1  0  0  0  0
 16 45  1  0  0  0  0
 16 46  1  0  0  0  0
 16 47  1  0  0  0  0
 17 18  1  0  0  0  0
 17 21  2  0  0  0  0
 18 22  2  0  0  0  0
 19 23  1  0  0  0  0
 19 49  1  0  0  0  0
 20 24  1  0  0  0  0
 20 50  1  0  0  0  0
 21 25  1  0  0  0  0
 22 26  1  0  0  0  0
 23 25  2  0  0  0  0
 24 26  2  0  0  0  0
 27 51  1  0  0  0  0
 27 52  1  0  0  0  0
 27 53  1  0  0  0  0
 28 33  1  0  0  0  0
 29 54  1  0  0  0  0
 29 55  1  0  0  0  0
 29 56  1  0  0  0  0
 30 57  1  0  0  0  0
 30 58  1  0  0  0  0
 30 59  1  0  0  0  0
 31 60  1  0  0  0  0
 31 61  1  0  0  0  0
 31 62  1  0  0  0  0
 32 63  1  0  0  0  0
 32 64  1  0  0  0  0
 32 65  1  0  0  0  0
 33 34  1  0  0  0  0
 33 35  2  0  0  0  0
 34 66  1  0  0  0  0
 34 67  1  0  0  0  0
 34 68  1  0  0  0  0
 35 36  1  0  0  0  0
 35 69  1  0  0  0  0
 36 70  1  0  0  0  0
 36 71  1  0  0  0  0
 36 72  1  0  0  0  0
M  END
> <PUBCHEM_COMPOUND_CID>
5318766

> <PUBCHEM_CONFORMER_RMSD>
1

> <PUBCHEM_CONFORMER_DIVERSEORDER>
1
8
23
3
2
25
16
6
22
17
19
4
18
24
11
15
5
12
20
7
9
10
14
21
13

> <PUBCHEM_MMFF94_PARTIAL_CHARGES>
35
1 -0.68
11 0.14
12 0.14
13 -0.14
14 -0.14
19 -0.15
2 -0.36
20 -0.15
21 0.08
22 0.08
23 0.08
24 0.08
25 0.08
26 0.08
27 0.28
28 0.71
29 0.28
3 -0.23
30 0.28
31 0.28
32 0.28
33 -0.12
34 0.14
35 -0.29
36 0.14
4 -0.36
48 0.4
49 0.15
5 -0.36
50 0.15
6 -0.36
69 0.15
7 -0.36
8 -0.57
9 0.28

> <PUBCHEM_EFFECTIVE_ROTOR_COUNT>
8.8

> <PUBCHEM_PHARMACOPHORE_FEATURES>
12
1 1 acceptor
1 1 donor
1 2 acceptor
1 34 hydrophobe
1 36 hydrophobe
1 4 acceptor
1 5 acceptor
1 6 acceptor
1 7 acceptor
1 8 acceptor
6 13 17 19 21 23 25 rings
6 14 18 20 22 24 26 rings

> <PUBCHEM_HEAVY_ATOM_COUNT>
36

> <PUBCHEM_ATOM_DEF_STEREO_COUNT>
2

> <PUBCHEM_ATOM_UDEF_STEREO_COUNT>
0

> <PUBCHEM_BOND_DEF_STEREO_COUNT>
1

> <PUBCHEM_BOND_UDEF_STEREO_COUNT>
0

> <PUBCHEM_ISOTOPIC_ATOM_COUNT>
0

> <PUBCHEM_COMPONENT_COUNT>
1

> <PUBCHEM_CACTVS_TAUTO_COUNT>
1

> <PUBCHEM_CONFORMER_ID>
0051286E00000001

> <PUBCHEM_MMFF94_ENERGY>
176.19

> <PUBCHEM_FEATURE_SELFOVERLAP>
60.916

> <PUBCHEM_SHAPE_FINGERPRINT>
10675989 125 16031829692095004974
10906281 52 18187944883956076649
11578080 2 17840320916716653316
11828532 37 17458628986563099787
12035759 4 16464173761125366365
12160290 23 17391658591606991745
12293681 25 17694775229526943167
12788726 201 17896904065862718821
140371 6 18334582347764576245
15324884 4 18337378461109091481
15420108 30 17907575083840335385
15775530 1 17908989807385779076
16728300 4 17754986776130626098
18365409 1 17629755940838065847
20775438 99 17189224134183033479
21033648 29 17916575582813934544
21285901 2 18335420111041663525
229495 10 17772737287332297837
23559900 14 17895744120193057450
3493558 16 15793716657770526316
57527452 28 17703232939640585095
57527585 103 17690576186252175618
6004065 56 18337659919776085415
70251023 43 17910411493465138911
9981440 41 17766803210403545416

> <PUBCHEM_SHAPE_MULTIPOLES>
693.91
7.36
6.75
2.57
0.27
1.12
0.02
0.8
2.93
-0.96
-5.82
0.2
1.58
2.99

> <PUBCHEM_SHAPE_SELFOVERLAP>
1472.217

> <PUBCHEM_SHAPE_VOLUME>
387.3

> <PUBCHEM_COORDINATE_TYPE>
2
5
10

$$$$
