154831470
  -OEChem-02172602353D

 73 77  0     1  0  0  0  0  0999 V2000
    0.3323   -1.7425   -0.9829 O   0  0  0  0  0  0  0  0  0  0  0  0
   -2.2568   -1.6873   -0.0540 O   0  0  0  0  0  0  0  0  0  0  0  0
   -4.3826   -2.4574    0.6677 O   0  0  0  0  0  0  0  0  0  0  0  0
    0.2361   -4.3291   -2.2178 O   0  0  0  0  0  0  0  0  0  0  0  0
    2.6394   -5.1750   -1.1893 O   0  0  0  0  0  0  0  0  0  0  0  0
    2.1896   -0.4010   -1.4333 O   0  0  0  0  0  0  0  0  0  0  0  0
    3.8949   -2.6014   -0.7809 O   0  0  0  0  0  0  0  0  0  0  0  0
   -5.4911   -0.1234   -0.6527 O   0  0  0  0  0  0  0  0  0  0  0  0
   -4.6745    1.6233    1.3241 O   0  0  0  0  0  0  0  0  0  0  0  0
   -4.4868   -0.1776    3.5626 O   0  0  0  0  0  0  0  0  0  0  0  0
    1.2722    2.6981    0.3391 O   0  0  0  0  0  0  0  0  0  0  0  0
   -0.1224    0.4238   -2.7409 O   0  0  0  0  0  0  0  0  0  0  0  0
   -2.1084    2.0898   -3.0795 O   0  0  0  0  0  0  0  0  0  0  0  0
   -2.2625    5.8276   -0.1549 O   0  0  0  0  0  0  0  0  0  0  0  0
    6.7167    0.8320    0.2880 O   0  0  0  0  0  0  0  0  0  0  0  0
    6.4946    0.4394    3.0305 O   0  0  0  0  0  0  0  0  0  0  0  0
   -0.2083   -2.8894   -0.3150 C   0  0  2  0  0  0  0  0  0  0  0  0
    0.4832   -4.1605   -0.8201 C   0  0  2  0  0  0  0  0  0  0  0  0
    1.9926   -4.0492   -0.6023 C   0  0  2  0  0  0  0  0  0  0  0  0
    2.5397   -2.7539   -1.2016 C   0  0  1  0  0  0  0  0  0  0  0  0
   -4.1463   -0.1874   -0.1742 C   0  0  2  0  0  0  0  0  0  0  0  0
   -3.6643   -1.6354   -0.2587 C   0  0  1  0  0  0  0  0  0  0  0  0
   -4.0728    0.3326    1.2622 C   0  0  2  0  0  0  0  0  0  0  0  0
   -4.7675   -0.6202    2.2367 C   0  0  1  0  0  0  0  0  0  0  0  0
    1.7228   -1.5499   -0.7271 C   0  0  2  0  0  0  0  0  0  0  0  0
   -1.7020   -2.8924   -0.5612 C   0  0  0  0  0  0  0  0  0  0  0  0
   -4.2529   -2.0518    2.0342 C   0  0  1  0  0  0  0  0  0  0  0  0
   -5.0295   -3.0616    2.8746 C   0  0  0  0  0  0  0  0  0  0  0  0
    1.5109    0.7371   -1.0550 C   0  0  0  0  0  0  0  0  0  0  0  0
    1.9124    1.5304   -0.0452 C   0  0  0  0  0  0  0  0  0  0  0  0
    0.2918    1.1068   -1.8137 C   0  0  0  0  0  0  0  0  0  0  0  0
   -0.3912    2.3393   -1.3918 C   0  0  0  0  0  0  0  0  0  0  0  0
    3.1150    1.2435    0.7568 C   0  0  0  0  0  0  0  0  0  0  0  0
    0.1381    3.0739   -0.3331 C   0  0  0  0  0  0  0  0  0  0  0  0
   -1.5508    2.7713   -2.0401 C   0  0  0  0  0  0  0  0  0  0  0  0
   -0.4897    4.2479    0.0844 C   0  0  0  0  0  0  0  0  0  0  0  0
    4.3643    1.1708    0.1406 C   0  0  0  0  0  0  0  0  0  0  0  0
    3.0037    1.0469    2.1332 C   0  0  0  0  0  0  0  0  0  0  0  0
   -2.1771    3.9455   -1.6206 C   0  0  0  0  0  0  0  0  0  0  0  0
   -1.6478    4.6825   -0.5605 C   0  0  0  0  0  0  0  0  0  0  0  0
    5.5022    0.9014    0.9009 C   0  0  0  0  0  0  0  0  0  0  0  0
    4.1417    0.7775    2.8935 C   0  0  0  0  0  0  0  0  0  0  0  0
    5.3910    0.7048    2.2773 C   0  0  0  0  0  0  0  0  0  0  0  0
   -0.0316   -2.7625    0.7614 H   0  0  0  0  0  0  0  0  0  0  0  0
    0.0983   -5.0522   -0.3120 H   0  0  0  0  0  0  0  0  0  0  0  0
    2.2162   -4.0789    0.4716 H   0  0  0  0  0  0  0  0  0  0  0  0
    2.5538   -2.8109   -2.2962 H   0  0  0  0  0  0  0  0  0  0  0  0
   -3.5442    0.4617   -0.8204 H   0  0  0  0  0  0  0  0  0  0  0  0
   -3.9045   -2.0159   -1.2596 H   0  0  0  0  0  0  0  0  0  0  0  0
   -3.0240    0.4584    1.5599 H   0  0  0  0  0  0  0  0  0  0  0  0
   -5.8533   -0.5684    2.0947 H   0  0  0  0  0  0  0  0  0  0  0  0
    1.8783   -1.3957    0.3497 H   0  0  0  0  0  0  0  0  0  0  0  0
   -2.1667   -3.7550   -0.0704 H   0  0  0  0  0  0  0  0  0  0  0  0
   -1.9097   -2.9342   -1.6367 H   0  0  0  0  0  0  0  0  0  0  0  0
   -3.1981   -2.1233    2.3298 H   0  0  0  0  0  0  0  0  0  0  0  0
   -6.0897   -3.0666    2.5982 H   0  0  0  0  0  0  0  0  0  0  0  0
   -4.6535   -4.0750    2.6959 H   0  0  0  0  0  0  0  0  0  0  0  0
   -4.9462   -2.8438    3.9434 H   0  0  0  0  0  0  0  0  0  0  0  0
   -0.6826   -4.6293   -2.3210 H   0  0  0  0  0  0  0  0  0  0  0  0
    2.2647   -5.9742   -0.7813 H   0  0  0  0  0  0  0  0  0  0  0  0
    3.9027   -2.5122    0.1874 H   0  0  0  0  0  0  0  0  0  0  0  0
   -5.4863   -0.4123   -1.5812 H   0  0  0  0  0  0  0  0  0  0  0  0
   -4.1992    2.1984    0.7002 H   0  0  0  0  0  0  0  0  0  0  0  0
   -3.5280   -0.2498    3.7080 H   0  0  0  0  0  0  0  0  0  0  0  0
   -0.0792    4.8235    0.9101 H   0  0  0  0  0  0  0  0  0  0  0  0
    4.4590    1.3309   -0.9313 H   0  0  0  0  0  0  0  0  0  0  0  0
    2.0369    1.0974    2.6282 H   0  0  0  0  0  0  0  0  0  0  0  0
   -3.0802    4.2825   -2.1240 H   0  0  0  0  0  0  0  0  0  0  0  0
    4.0405    0.6254    3.9648 H   0  0  0  0  0  0  0  0  0  0  0  0
   -1.6059    1.2821   -3.2656 H   0  0  0  0  0  0  0  0  0  0  0  0
   -3.0474    5.9776   -0.7094 H   0  0  0  0  0  0  0  0  0  0  0  0
    6.6014    0.9923   -0.6644 H   0  0  0  0  0  0  0  0  0  0  0  0
    6.2260    0.3324    3.9592 H   0  0  0  0  0  0  0  0  0  0  0  0
  1 17  1  0  0  0  0
  1 25  1  0  0  0  0
  2 22  1  0  0  0  0
  2 26  1  0  0  0  0
  3 22  1  0  0  0  0
  3 27  1  0  0  0  0
  4 18  1  0  0  0  0
  4 59  1  0  0  0  0
  5 19  1  0  0  0  0
  5 60  1  0  0  0  0
  6 25  1  0  0  0  0
  6 29  1  0  0  0  0
  7 20  1  0  0  0  0
  7 61  1  0  0  0  0
  8 21  1  0  0  0  0
  8 62  1  0  0  0  0
  9 23  1  0  0  0  0
  9 63  1  0  0  0  0
 10 24  1  0  0  0  0
 10 64  1  0  0  0  0
 11 30  1  0  0  0  0
 11 34  1  0  0  0  0
 12 31  2  0  0  0  0
 13 35  1  0  0  0  0
 13 70  1  0  0  0  0
 14 40  1  0  0  0  0
 14 71  1  0  0  0  0
 15 41  1  0  0  0  0
 15 72  1  0  0  0  0
 16 43  1  0  0  0  0
 16 73  1  0  0  0  0
 17 18  1  0  0  0  0
 17 26  1  0  0  0  0
 17 44  1  0  0  0  0
 18 19  1  0  0  0  0
 18 45  1  0  0  0  0
 19 20  1  0  0  0  0
 19 46  1  0  0  0  0
 20 25  1  0  0  0  0
 20 47  1  0  0  0  0
 21 22  1  0  0  0  0
 21 23  1  0  0  0  0
 21 48  1  0  0  0  0
 22 49  1  0  0  0  0
 23 24  1  0  0  0  0
 23 50  1  0  0  0  0
 24 27  1  0  0  0  0
 24 51  1  0  0  0  0
 25 52  1  0  0  0  0
 26 53  1  0  0  0  0
 26 54  1  0  0  0  0
 27 28  1  0  0  0  0
 27 55  1  0  0  0  0
 28 56  1  0  0  0  0
 28 57  1  0  0  0  0
 28 58  1  0  0  0  0
 29 30  2  0  0  0  0
 29 31  1  0  0  0  0
 30 33  1  0  0  0  0
 31 32  1  0  0  0  0
 32 34  1  0  0  0  0
 32 35  2  0  0  0  0
 33 37  2  0  0  0  0
 33 38  1  0  0  0  0
 34 36  2  0  0  0  0
 35 39  1  0  0  0  0
 36 40  1  0  0  0  0
 36 65  1  0  0  0  0
 37 41  1  0  0  0  0
 37 66  1  0  0  0  0
 38 42  2  0  0  0  0
 38 67  1  0  0  0  0
 39 40  2  0  0  0  0
 39 68  1  0  0  0  0
 41 43  2  0  0  0  0
 42 43  1  0  0  0  0
 42 69  1  0  0  0  0
M  END
> <PUBCHEM_COMPOUND_CID>
154831470

> <PUBCHEM_CONFORMER_RMSD>
1.2

> <PUBCHEM_CONFORMER_DIVERSEORDER>
1
240
10
17
103
241
84
69
47
137
102
68
58
159
146
138
214
191
168
44
151
163
224
124
96
212
71
233
74
111
219
25
86
180
36
100
154
218
82
35
64
192
97
112
4
239
104
110
210
166
122
131
157
150
78
174
196
231
172
63
73
11
155
206
176
140
200
179
59
143
133
207
171
236
23
39
193
144
41
89
93
62
91
107
237
118
175
194
162
49
105
199
228
132
106
183
169
222
38
142
234
197
141
209
94
153
6
204
135
160
115
202
208
152
178
177
182
120
181
227
55
45
54
21
225
50
53
127
88
188
33
40
216
128
211
109
229
61
34
126
92
101
123
52
90
195
48
27
99
148
125
221
238
190
114
217
60
136
205
173
108
5
37
129
130
185
29
213
215
72
170
15
145
2
67
165
42
117
7
24
156
186
187
57
77
16
79
203
161
43
76
113
26
164
85
18
80
20
230
56
8
116
51
98
232
19
226
12
223
66
121
70
46
189
32
65
139
9
198
30
167
95
184
75
87
22
31
81
201
83
158
149
13
147
119
3
235
14
220
28
134

> <PUBCHEM_MMFF94_PARTIAL_CHARGES>
57
1 -0.56
10 -0.68
11 -0.16
12 -0.57
13 -0.53
14 -0.53
15 -0.53
16 -0.53
17 0.28
18 0.28
19 0.28
2 -0.56
20 0.28
21 0.28
22 0.56
23 0.28
24 0.28
25 0.56
26 0.28
27 0.28
29 0.09
3 -0.56
30 0.05
31 0.47
32 0.09
33 0.03
34 0.08
35 0.08
36 -0.15
37 -0.15
38 -0.15
39 -0.15
4 -0.68
40 0.08
41 0.08
42 -0.15
43 0.08
5 -0.68
59 0.4
6 -0.36
60 0.4
61 0.4
62 0.4
63 0.4
64 0.4
65 0.15
66 0.15
67 0.15
68 0.15
69 0.15
7 -0.68
70 0.45
71 0.45
72 0.45
73 0.45
8 -0.68
9 -0.68

> <PUBCHEM_EFFECTIVE_ROTOR_COUNT>
8.4

> <PUBCHEM_PHARMACOPHORE_FEATURES>
27
1 1 acceptor
1 10 acceptor
1 10 donor
1 11 acceptor
1 12 acceptor
1 13 donor
1 14 donor
1 15 donor
1 16 donor
1 2 acceptor
1 3 acceptor
1 4 acceptor
1 4 donor
1 5 acceptor
1 5 donor
1 6 acceptor
1 7 acceptor
1 7 donor
1 8 acceptor
1 8 donor
1 9 acceptor
1 9 donor
6 1 17 18 19 20 25 rings
6 11 29 30 31 32 34 rings
6 3 21 22 23 24 27 rings
6 32 34 35 36 39 40 rings
6 33 37 38 41 42 43 rings

> <PUBCHEM_HEAVY_ATOM_COUNT>
43

> <PUBCHEM_ATOM_DEF_STEREO_COUNT>
10

> <PUBCHEM_ATOM_UDEF_STEREO_COUNT>
0

> <PUBCHEM_BOND_DEF_STEREO_COUNT>
0

> <PUBCHEM_BOND_UDEF_STEREO_COUNT>
0

> <PUBCHEM_ISOTOPIC_ATOM_COUNT>
0

> <PUBCHEM_COMPONENT_COUNT>
1

> <PUBCHEM_CACTVS_TAUTO_COUNT>
-1

> <PUBCHEM_CONFORMER_ID>
093A8A6E00000001

> <PUBCHEM_MMFF94_ENERGY>
133.683

> <PUBCHEM_FEATURE_SELFOVERLAP>
137.216

> <PUBCHEM_SHAPE_FINGERPRINT>
10032420 55 16679770846086740212
10439779 11 18195255627058314059
11763715 3 15719673131400779252
12156800 1 17315365725743618250
12202916 173 18189030110981107343
12422481 6 18408318882946187762
12633257 1 18268991075454898524
12788726 201 18189038963114523632
131258 38 16520467532502351002
150020 26 18122099509598981499
15420108 30 18130783486199322142
15444296 8 17095514128548207063
15484559 13 14022214210787072840
15775530 1 18122617258815198718
15815584 197 18340220647491587567
16090146 7 15085780956204148836
17974551 9 17840613426013071633
20764821 26 18338233872623329772
21033648 29 17988373674990946259
21796203 349 17900005977011776577
22121540 332 18271254824305393318
22223350 30 17684082478978515482
238918 7 18339066134090222590
25223398 141 18263932051521771668
3380486 145 18339630243916910007
437795 96 18338798897262453083
45266715 3 18191565482006292293
469060 322 18055888069945777525
50150288 127 17679549325834286049
5171179 24 18054503599869508702
563151 40 13878851706675981382
563151 74 18059855030899955569
56638632 10 17987212573880324464
56638632 33 16964347579211040166
57527358 35 15697731396787842607
613672 6 18334017198829733489
6371009 1 17983571098701426423
9981440 41 17909509975360304100

> <PUBCHEM_SHAPE_MULTIPOLES>
791.01
11.49
6.99
2.98
4.26
1.02
1.69
-2.32
11.76
-2.78
-3.83
-0.53
-0.34
3.96

> <PUBCHEM_SHAPE_SELFOVERLAP>
1725.111

> <PUBCHEM_SHAPE_VOLUME>
425.4

> <PUBCHEM_COORDINATE_TYPE>
2
5
10

$$$$
