5317511
  -OEChem-02172602383D

 84 87  0     1  0  0  0  0  0999 V2000
    4.4537   -3.2084    1.3052 O   0  0  0  0  0  0  0  0  0  0  0  0
   -3.7726    3.1927    1.6690 O   0  0  0  0  0  0  0  0  0  0  0  0
   -6.0584   -0.6866   -1.6234 O   0  0  0  0  0  0  0  0  0  0  0  0
   -5.5315   -2.7788    0.2754 O   0  0  0  0  0  0  0  0  0  0  0  0
   -0.3104    1.1885   -0.1679 C   0  0  1  0  0  0  0  0  0  0  0  0
    0.4692    0.1058   -0.9884 C   0  0  1  0  0  0  0  0  0  0  0  0
   -1.7789    0.8009   -0.4598 C   0  0  2  0  0  0  0  0  0  0  0  0
    4.0222    0.9529    0.5595 C   0  0  1  0  0  0  0  0  0  0  0  0
   -0.2794    0.1767   -2.3378 C   0  0  0  0  0  0  0  0  0  0  0  0
    1.9642    0.4058   -0.9274 C   0  0  0  0  0  0  0  0  0  0  0  0
    4.8286    0.1689   -0.5517 C   0  0  1  0  0  0  0  0  0  0  0  0
   -1.7581    0.4215   -1.9603 C   0  0  0  0  0  0  0  0  0  0  0  0
    2.4886    0.8081    0.4007 C   0  0  0  0  0  0  0  0  0  0  0  0
    0.1222    1.0998    1.3040 C   0  0  0  0  0  0  0  0  0  0  0  0
    5.0585   -1.3800   -0.2269 C   0  0  0  0  0  0  0  0  0  0  0  0
   -2.8443    1.8385   -0.1285 C   0  0  1  0  0  0  0  0  0  0  0  0
   -0.0435    2.6488   -0.6647 C   0  0  0  0  0  0  0  0  0  0  0  0
    4.5531    0.4841    1.9376 C   0  0  0  0  0  0  0  0  0  0  0  0
    0.3095   -1.3586   -0.4694 C   0  0  0  0  0  0  0  0  0  0  0  0
    4.2440    0.4896   -1.9443 C   0  0  0  0  0  0  0  0  0  0  0  0
    1.6319    1.0837    1.4153 C   0  0  0  0  0  0  0  0  0  0  0  0
    2.7650    0.2973   -2.0004 C   0  0  0  0  0  0  0  0  0  0  0  0
    4.1746   -1.8496    0.9607 C   0  0  2  0  0  0  0  0  0  0  0  0
    4.3219   -0.9960    2.2188 C   0  0  0  0  0  0  0  0  0  0  0  0
    4.3379    2.4696    0.4457 C   0  0  0  0  0  0  0  0  0  0  0  0
   -4.2336    1.3067   -0.5514 C   0  0  0  0  0  0  0  0  0  0  0  0
    6.5585   -1.5829    0.1297 C   0  0  0  0  0  0  0  0  0  0  0  0
    4.7955   -2.3237   -1.4260 C   0  0  0  0  0  0  0  0  0  0  0  0
   -2.7765    2.2291    1.3572 C   0  0  0  0  0  0  0  0  0  0  0  0
   -4.6665    0.0435    0.2083 C   0  0  0  0  0  0  0  0  0  0  0  0
   -6.0629   -0.4517   -0.2122 C   0  0  2  0  0  0  0  0  0  0  0  0
   -6.5077   -1.7570    0.4975 C   0  0  0  0  0  0  0  0  0  0  0  0
   -7.8453   -2.2662   -0.0575 C   0  0  0  0  0  0  0  0  0  0  0  0
   -6.6294   -1.5732    2.0131 C   0  0  0  0  0  0  0  0  0  0  0  0
   -1.9891   -0.1021    0.1238 H   0  0  0  0  0  0  0  0  0  0  0  0
   -0.1721   -0.7349   -2.9365 H   0  0  0  0  0  0  0  0  0  0  0  0
    0.0831    1.0056   -2.9576 H   0  0  0  0  0  0  0  0  0  0  0  0
    5.8345    0.6153   -0.5757 H   0  0  0  0  0  0  0  0  0  0  0  0
   -2.3541   -0.4815   -2.1342 H   0  0  0  0  0  0  0  0  0  0  0  0
   -2.1617    1.2130   -2.6017 H   0  0  0  0  0  0  0  0  0  0  0  0
   -0.1866    1.9641    1.8909 H   0  0  0  0  0  0  0  0  0  0  0  0
   -0.2868    0.2146    1.8032 H   0  0  0  0  0  0  0  0  0  0  0  0
   -2.6924    2.7503   -0.7204 H   0  0  0  0  0  0  0  0  0  0  0  0
    1.0210    2.9011   -0.6867 H   0  0  0  0  0  0  0  0  0  0  0  0
   -0.5147    3.3936   -0.0163 H   0  0  0  0  0  0  0  0  0  0  0  0
   -0.4247    2.8225   -1.6760 H   0  0  0  0  0  0  0  0  0  0  0  0
    5.6339    0.6781    1.9794 H   0  0  0  0  0  0  0  0  0  0  0  0
    4.1411    1.0770    2.7632 H   0  0  0  0  0  0  0  0  0  0  0  0
    0.8946   -2.0485   -1.0916 H   0  0  0  0  0  0  0  0  0  0  0  0
    0.6582   -1.4879    0.5599 H   0  0  0  0  0  0  0  0  0  0  0  0
   -0.7237   -1.7170   -0.5067 H   0  0  0  0  0  0  0  0  0  0  0  0
    4.4628    1.5292   -2.2181 H   0  0  0  0  0  0  0  0  0  0  0  0
    4.7286   -0.1069   -2.7221 H   0  0  0  0  0  0  0  0  0  0  0  0
    2.0147    1.3766    2.3883 H   0  0  0  0  0  0  0  0  0  0  0  0
    2.3545    0.0191   -2.9666 H   0  0  0  0  0  0  0  0  0  0  0  0
    3.1268   -1.8426    0.6461 H   0  0  0  0  0  0  0  0  0  0  0  0
    3.4136   -1.1193    2.8232 H   0  0  0  0  0  0  0  0  0  0  0  0
    5.1308   -1.3683    2.8603 H   0  0  0  0  0  0  0  0  0  0  0  0
    3.9485    2.9072   -0.4798 H   0  0  0  0  0  0  0  0  0  0  0  0
    3.8952    3.0320    1.2767 H   0  0  0  0  0  0  0  0  0  0  0  0
    5.4183    2.6525    0.4714 H   0  0  0  0  0  0  0  0  0  0  0  0
   -4.9800    2.0918   -0.3735 H   0  0  0  0  0  0  0  0  0  0  0  0
   -4.2579    1.1245   -1.6312 H   0  0  0  0  0  0  0  0  0  0  0  0
    6.7998   -2.6356    0.3127 H   0  0  0  0  0  0  0  0  0  0  0  0
    7.1992   -1.2524   -0.6968 H   0  0  0  0  0  0  0  0  0  0  0  0
    6.8544   -1.0167    1.0172 H   0  0  0  0  0  0  0  0  0  0  0  0
    3.7506   -2.2895   -1.7483 H   0  0  0  0  0  0  0  0  0  0  0  0
    5.4361   -2.0811   -2.2803 H   0  0  0  0  0  0  0  0  0  0  0  0
    5.0114   -3.3677   -1.1695 H   0  0  0  0  0  0  0  0  0  0  0  0
   -2.8792    1.3711    2.0276 H   0  0  0  0  0  0  0  0  0  0  0  0
   -1.8564    2.7539    1.5821 H   0  0  0  0  0  0  0  0  0  0  0  0
   -3.9470   -0.7540    0.0054 H   0  0  0  0  0  0  0  0  0  0  0  0
   -4.6614    0.2401    1.2834 H   0  0  0  0  0  0  0  0  0  0  0  0
    5.3105   -3.2441    1.7617 H   0  0  0  0  0  0  0  0  0  0  0  0
   -6.7998    0.3378   -0.0229 H   0  0  0  0  0  0  0  0  0  0  0  0
   -3.6870    3.3993    2.6154 H   0  0  0  0  0  0  0  0  0  0  0  0
   -5.4136   -1.3925   -1.8022 H   0  0  0  0  0  0  0  0  0  0  0  0
   -8.6386   -1.5212    0.0613 H   0  0  0  0  0  0  0  0  0  0  0  0
   -7.7643   -2.5268   -1.1185 H   0  0  0  0  0  0  0  0  0  0  0  0
   -8.1539   -3.1854    0.4541 H   0  0  0  0  0  0  0  0  0  0  0  0
   -7.3325   -0.7723    2.2639 H   0  0  0  0  0  0  0  0  0  0  0  0
   -5.6641   -1.3489    2.4784 H   0  0  0  0  0  0  0  0  0  0  0  0
   -6.9786   -2.4974    2.4888 H   0  0  0  0  0  0  0  0  0  0  0  0
   -4.7451   -2.5806    0.8108 H   0  0  0  0  0  0  0  0  0  0  0  0
  1 23  1  0  0  0  0
  1 74  1  0  0  0  0
  2 29  1  0  0  0  0
  2 76  1  0  0  0  0
  3 31  1  0  0  0  0
  3 77  1  0  0  0  0
  4 32  1  0  0  0  0
  4 84  1  0  0  0  0
  5  6  1  0  0  0  0
  5  7  1  0  0  0  0
  5 14  1  0  0  0  0
  5 17  1  0  0  0  0
  6  9  1  0  0  0  0
  6 10  1  0  0  0  0
  6 19  1  0  0  0  0
  7 12  1  0  0  0  0
  7 16  1  0  0  0  0
  7 35  1  0  0  0  0
  8 11  1  0  0  0  0
  8 13  1  0  0  0  0
  8 18  1  0  0  0  0
  8 25  1  0  0  0  0
  9 12  1  0  0  0  0
  9 36  1  0  0  0  0
  9 37  1  0  0  0  0
 10 13  1  0  0  0  0
 10 22  2  0  0  0  0
 11 15  1  0  0  0  0
 11 20  1  0  0  0  0
 11 38  1  0  0  0  0
 12 39  1  0  0  0  0
 12 40  1  0  0  0  0
 13 21  2  0  0  0  0
 14 21  1  0  0  0  0
 14 41  1  0  0  0  0
 14 42  1  0  0  0  0
 15 23  1  0  0  0  0
 15 27  1  0  0  0  0
 15 28  1  0  0  0  0
 16 26  1  0  0  0  0
 16 29  1  0  0  0  0
 16 43  1  0  0  0  0
 17 44  1  0  0  0  0
 17 45  1  0  0  0  0
 17 46  1  0  0  0  0
 18 24  1  0  0  0  0
 18 47  1  0  0  0  0
 18 48  1  0  0  0  0
 19 49  1  0  0  0  0
 19 50  1  0  0  0  0
 19 51  1  0  0  0  0
 20 22  1  0  0  0  0
 20 52  1  0  0  0  0
 20 53  1  0  0  0  0
 21 54  1  0  0  0  0
 22 55  1  0  0  0  0
 23 24  1  0  0  0  0
 23 56  1  0  0  0  0
 24 57  1  0  0  0  0
 24 58  1  0  0  0  0
 25 59  1  0  0  0  0
 25 60  1  0  0  0  0
 25 61  1  0  0  0  0
 26 30  1  0  0  0  0
 26 62  1  0  0  0  0
 26 63  1  0  0  0  0
 27 64  1  0  0  0  0
 27 65  1  0  0  0  0
 27 66  1  0  0  0  0
 28 67  1  0  0  0  0
 28 68  1  0  0  0  0
 28 69  1  0  0  0  0
 29 70  1  0  0  0  0
 29 71  1  0  0  0  0
 30 31  1  0  0  0  0
 30 72  1  0  0  0  0
 30 73  1  0  0  0  0
 31 32  1  0  0  0  0
 31 75  1  0  0  0  0
 32 33  1  0  0  0  0
 32 34  1  0  0  0  0
 33 78  1  0  0  0  0
 33 79  1  0  0  0  0
 33 80  1  0  0  0  0
 34 81  1  0  0  0  0
 34 82  1  0  0  0  0
 34 83  1  0  0  0  0
M  END
> <PUBCHEM_COMPOUND_CID>
5317511

> <PUBCHEM_CONFORMER_RMSD>
1

> <PUBCHEM_CONFORMER_DIVERSEORDER>
5
9
13
6
8
2
12
7
10
11
1
14
4
3

> <PUBCHEM_MMFF94_PARTIAL_CHARGES>
22
1 -0.68
10 -0.14
13 -0.14
14 0.14
2 -0.68
20 0.14
21 -0.29
22 -0.29
23 0.28
29 0.28
3 -0.68
31 0.28
32 0.28
4 -0.68
54 0.15
55 0.15
6 0.14
74 0.4
76 0.4
77 0.4
8 0.14
84 0.4

> <PUBCHEM_EFFECTIVE_ROTOR_COUNT>
7.8

> <PUBCHEM_PHARMACOPHORE_FEATURES>
14
1 1 acceptor
1 1 donor
1 2 acceptor
1 2 donor
1 3 acceptor
1 3 donor
1 4 acceptor
1 4 donor
3 15 27 28 hydrophobe
3 32 33 34 hydrophobe
5 5 6 7 9 12 rings
6 5 6 10 13 14 21 rings
6 8 10 11 13 20 22 rings
6 8 11 15 18 23 24 rings

> <PUBCHEM_HEAVY_ATOM_COUNT>
34

> <PUBCHEM_ATOM_DEF_STEREO_COUNT>
6

> <PUBCHEM_ATOM_UDEF_STEREO_COUNT>
2

> <PUBCHEM_BOND_DEF_STEREO_COUNT>
0

> <PUBCHEM_BOND_UDEF_STEREO_COUNT>
0

> <PUBCHEM_ISOTOPIC_ATOM_COUNT>
0

> <PUBCHEM_COMPONENT_COUNT>
1

> <PUBCHEM_CACTVS_TAUTO_COUNT>
1

> <PUBCHEM_CONFORMER_ID>
0051238700000005

> <PUBCHEM_MMFF94_ENERGY>
139.6793

> <PUBCHEM_FEATURE_SELFOVERLAP>
71.235

> <PUBCHEM_SHAPE_FINGERPRINT>
10076449 9 16916526808390832788
10319926 262 18059298652141209753
11115154 58 16588015824124559373
11456790 92 14333134027390816022
11646440 116 16272206375520587154
117089 54 17983301426511798958
11763715 3 18115042813195553132
11796584 16 18264768757630761836
1200032 147 16199861912649471864
12035758 1 16989120950574180070
12166972 35 18040720298793259125
12422481 6 17132116836150706597
12596602 18 18410854360632884825
13533116 47 18334575746035364730
13782708 43 18408885109859344607
14211702 104 18335143068387221859
14790565 3 10591754394381558887
15082195 135 12468640517188711222
15183329 4 15357692007582751683
15352257 5 18335139812986699251
15392192 104 16486134062681489807
15475509 35 18411694379221983282
16994733 274 9727050046487221886
17349148 13 17968384454734537661
17913733 40 15625947504379034487
18222031 100 17312822671217951572
19958102 18 17967526887785014579
20028762 73 18186798050320942810
20567600 247 17968376745632374770
20691028 202 9943540617737232787
20775438 99 16588026810171023594
21033648 29 16630241407841445545
21424621 283 11600006544246390109
22149856 69 18410582786204287433
23522609 53 18047789024710331997
23559900 14 14057012606833351036
23569914 152 15217475537167818579
23569914 2 11813915273274839187
23569943 247 17683801013515484290
249057 3 9150905983433708600
2748736 6 9151183030467779635
2838139 119 9006791860630645771
3680242 22 16200424767470105418
392239 28 16559027190808705525
4015057 19 15430324672030320533
4144715 1 17556876727444336981
439807 62 18260833705096037515
465052 167 18343865515578357508
50009960 94 18047738318068206254
5104073 3 17632581500473061345
57724786 102 13757778361281310914
59682541 52 14418120821260599475
6086070 43 17676760985657870605

> <PUBCHEM_SHAPE_MULTIPOLES>
676.23
17.77
2.97
2.06
23.46
0.4
-0.06
13.95
3.47
1.02
0.99
-0.87
-0.03
-0.08

> <PUBCHEM_SHAPE_SELFOVERLAP>
1418.634

> <PUBCHEM_SHAPE_VOLUME>
380.9

> <PUBCHEM_COORDINATE_TYPE>
2
5
10

$$$$
