102434457
  -OEChem-02172602463D

 65 68  0     1  0  0  0  0  0999 V2000
    5.7211    1.6068    2.2042 Br  0  0  0  0  0  0  0  0  0  0  0  0
    5.9554   -0.1844    0.1705 F   0  0  0  0  0  0  0  0  0  0  0  0
    5.7249    1.8746   -0.5028 F   0  0  0  0  0  0  0  0  0  0  0  0
    3.1786    1.9865    0.6559 O   0  0  0  0  0  0  0  0  0  0  0  0
    1.4234   -0.8307   -0.5503 O   0  0  0  0  0  0  0  0  0  0  0  0
   -0.1536    1.4527   -0.8543 O   0  0  0  0  0  0  0  0  0  0  0  0
    4.0128   -0.8513   -1.5539 O   0  0  0  0  0  0  0  0  0  0  0  0
   -0.2517    1.3787    1.7616 O   0  0  0  0  0  0  0  0  0  0  0  0
    1.9082    0.2775   -1.3078 C   0  0  1  0  0  0  0  0  0  0  0  0
    1.2618    1.5680   -0.8053 C   0  0  2  0  0  0  0  0  0  0  0  0
    3.4283    0.3860   -1.1667 C   0  0  1  0  0  0  0  0  0  0  0  0
    1.7483    1.9773    0.5946 C   0  0  1  0  0  0  0  0  0  0  0  0
    3.8148    0.7614    0.2717 C   0  0  1  0  0  0  0  0  0  0  0  0
    1.1523    1.1946    1.7643 C   0  0  0  0  0  0  0  0  0  0  0  0
    5.3183    0.9790    0.4220 C   0  0  0  0  0  0  0  0  0  0  0  0
    1.6125   -2.0563   -1.2431 C   0  0  0  0  0  0  0  0  0  0  0  0
   -0.6440    1.6717   -2.1678 C   0  0  0  0  0  0  0  0  0  0  0  0
    0.6855   -3.0893   -0.6731 C   0  0  0  0  0  0  0  0  0  0  0  0
   -2.1387    1.5382   -2.1613 C   0  0  0  0  0  0  0  0  0  0  0  0
   -0.8775    0.6752    2.8287 C   0  0  0  0  0  0  0  0  0  0  0  0
   -2.3323    0.4934    2.5091 C   0  0  0  0  0  0  0  0  0  0  0  0
   -0.5932   -3.2489   -1.2069 C   0  0  0  0  0  0  0  0  0  0  0  0
    1.1023   -3.8902    0.3902 C   0  0  0  0  0  0  0  0  0  0  0  0
   -2.7293    0.2962   -2.3940 C   0  0  0  0  0  0  0  0  0  0  0  0
   -2.9373    2.6565   -1.9226 C   0  0  0  0  0  0  0  0  0  0  0  0
   -1.4553   -4.2092   -0.6774 C   0  0  0  0  0  0  0  0  0  0  0  0
    0.2402   -4.8507    0.9198 C   0  0  0  0  0  0  0  0  0  0  0  0
   -4.1187    0.1725   -2.3881 C   0  0  0  0  0  0  0  0  0  0  0  0
   -4.3266    2.5329   -1.9166 C   0  0  0  0  0  0  0  0  0  0  0  0
   -3.2593    1.4575    2.9049 C   0  0  0  0  0  0  0  0  0  0  0  0
   -2.7574   -0.6400    1.8163 C   0  0  0  0  0  0  0  0  0  0  0  0
   -1.0385   -5.0102    0.3859 C   0  0  0  0  0  0  0  0  0  0  0  0
   -4.9173    1.2908   -2.1494 C   0  0  0  0  0  0  0  0  0  0  0  0
   -4.6117    1.2882    2.6078 C   0  0  0  0  0  0  0  0  0  0  0  0
   -4.1097   -0.8095    1.5192 C   0  0  0  0  0  0  0  0  0  0  0  0
   -5.0369    0.1547    1.9150 C   0  0  0  0  0  0  0  0  0  0  0  0
    1.6534    0.1255   -2.3626 H   0  0  0  0  0  0  0  0  0  0  0  0
    1.5874    2.3767   -1.4772 H   0  0  0  0  0  0  0  0  0  0  0  0
    3.7888    1.1631   -1.8527 H   0  0  0  0  0  0  0  0  0  0  0  0
    1.4298    3.0187    0.7377 H   0  0  0  0  0  0  0  0  0  0  0  0
    3.5229   -0.0427    0.9590 H   0  0  0  0  0  0  0  0  0  0  0  0
    1.5724    1.5710    2.7055 H   0  0  0  0  0  0  0  0  0  0  0  0
    1.3977    0.1301    1.7098 H   0  0  0  0  0  0  0  0  0  0  0  0
    3.8500   -0.9647   -2.5062 H   0  0  0  0  0  0  0  0  0  0  0  0
    2.6236   -2.4434   -1.1009 H   0  0  0  0  0  0  0  0  0  0  0  0
    1.4272   -1.9609   -2.3203 H   0  0  0  0  0  0  0  0  0  0  0  0
   -0.2250    0.9521   -2.8791 H   0  0  0  0  0  0  0  0  0  0  0  0
   -0.3663    2.6756   -2.5135 H   0  0  0  0  0  0  0  0  0  0  0  0
   -0.4139   -0.3085    2.9791 H   0  0  0  0  0  0  0  0  0  0  0  0
   -0.7494    1.2423    3.7584 H   0  0  0  0  0  0  0  0  0  0  0  0
   -0.9277   -2.6333   -2.0367 H   0  0  0  0  0  0  0  0  0  0  0  0
    2.0946   -3.7739    0.8179 H   0  0  0  0  0  0  0  0  0  0  0  0
   -2.1178   -0.5812   -2.5822 H   0  0  0  0  0  0  0  0  0  0  0  0
   -2.4889    3.6289   -1.7370 H   0  0  0  0  0  0  0  0  0  0  0  0
   -2.4511   -4.3329   -1.0928 H   0  0  0  0  0  0  0  0  0  0  0  0
    0.5643   -5.4735    1.7484 H   0  0  0  0  0  0  0  0  0  0  0  0
   -4.5784   -0.7949   -2.5680 H   0  0  0  0  0  0  0  0  0  0  0  0
   -4.9486    3.4032   -1.7291 H   0  0  0  0  0  0  0  0  0  0  0  0
   -2.9398    2.3459    3.4431 H   0  0  0  0  0  0  0  0  0  0  0  0
   -2.0439   -1.3960    1.4990 H   0  0  0  0  0  0  0  0  0  0  0  0
   -1.7099   -5.7575    0.7984 H   0  0  0  0  0  0  0  0  0  0  0  0
   -5.9990    1.1942   -2.1432 H   0  0  0  0  0  0  0  0  0  0  0  0
   -5.3335    2.0394    2.9147 H   0  0  0  0  0  0  0  0  0  0  0  0
   -4.4400   -1.6908    0.9772 H   0  0  0  0  0  0  0  0  0  0  0  0
   -6.0895    0.0236    1.6819 H   0  0  0  0  0  0  0  0  0  0  0  0
  1 15  1  0  0  0  0
  2 15  1  0  0  0  0
  3 15  1  0  0  0  0
  4 12  1  0  0  0  0
  4 13  1  0  0  0  0
  5  9  1  0  0  0  0
  5 16  1  0  0  0  0
  6 10  1  0  0  0  0
  6 17  1  0  0  0  0
  7 11  1  0  0  0  0
  7 44  1  0  0  0  0
  8 14  1  0  0  0  0
  8 20  1  0  0  0  0
  9 10  1  0  0  0  0
  9 11  1  0  0  0  0
  9 37  1  0  0  0  0
 10 12  1  0  0  0  0
 10 38  1  0  0  0  0
 11 13  1  0  0  0  0
 11 39  1  0  0  0  0
 12 14  1  0  0  0  0
 12 40  1  0  0  0  0
 13 15  1  0  0  0  0
 13 41  1  0  0  0  0
 14 42  1  0  0  0  0
 14 43  1  0  0  0  0
 16 18  1  0  0  0  0
 16 45  1  0  0  0  0
 16 46  1  0  0  0  0
 17 19  1  0  0  0  0
 17 47  1  0  0  0  0
 17 48  1  0  0  0  0
 18 22  2  0  0  0  0
 18 23  1  0  0  0  0
 19 24  2  0  0  0  0
 19 25  1  0  0  0  0
 20 21  1  0  0  0  0
 20 49  1  0  0  0  0
 20 50  1  0  0  0  0
 21 30  2  0  0  0  0
 21 31  1  0  0  0  0
 22 26  1  0  0  0  0
 22 51  1  0  0  0  0
 23 27  2  0  0  0  0
 23 52  1  0  0  0  0
 24 28  1  0  0  0  0
 24 53  1  0  0  0  0
 25 29  2  0  0  0  0
 25 54  1  0  0  0  0
 26 32  2  0  0  0  0
 26 55  1  0  0  0  0
 27 32  1  0  0  0  0
 27 56  1  0  0  0  0
 28 33  2  0  0  0  0
 28 57  1  0  0  0  0
 29 33  1  0  0  0  0
 29 58  1  0  0  0  0
 30 34  1  0  0  0  0
 30 59  1  0  0  0  0
 31 35  2  0  0  0  0
 31 60  1  0  0  0  0
 32 61  1  0  0  0  0
 33 62  1  0  0  0  0
 34 36  2  0  0  0  0
 34 63  1  0  0  0  0
 35 36  1  0  0  0  0
 35 64  1  0  0  0  0
 36 65  1  0  0  0  0
M  END
> <PUBCHEM_COMPOUND_CID>
102434457

> <PUBCHEM_CONFORMER_RMSD>
1.2

> <PUBCHEM_CONFORMER_DIVERSEORDER>
3
23
39
27
15
51
9
20
48
35
12
24
18
30
6
47
21
10
5
8
28
46
34
40
31
33
11
49
1
36
38
17
32
44
13
42
22
41
25
43
14
45
7
50
37
29
26
16
19
4
2

> <PUBCHEM_MMFF94_PARTIAL_CHARGES>
52
1 -0.23
10 0.28
11 0.28
12 0.28
13 0.28
14 0.28
15 0.91
16 0.42
17 0.42
18 -0.14
19 -0.14
2 -0.34
20 0.42
21 -0.14
22 -0.15
23 -0.15
24 -0.15
25 -0.15
26 -0.15
27 -0.15
28 -0.15
29 -0.15
3 -0.34
30 -0.15
31 -0.15
32 -0.15
33 -0.15
34 -0.15
35 -0.15
36 -0.15
4 -0.56
44 0.4
5 -0.56
51 0.15
52 0.15
53 0.15
54 0.15
55 0.15
56 0.15
57 0.15
58 0.15
59 0.15
6 -0.56
60 0.15
61 0.15
62 0.15
63 0.15
64 0.15
65 0.15
7 -0.68
8 -0.56
9 0.28

> <PUBCHEM_EFFECTIVE_ROTOR_COUNT>
12.2

> <PUBCHEM_PHARMACOPHORE_FEATURES>
11
1 1 hydrophobe
1 4 acceptor
1 5 acceptor
1 6 acceptor
1 7 acceptor
1 7 donor
1 8 acceptor
6 18 22 23 26 27 32 rings
6 19 24 25 28 29 33 rings
6 21 30 31 34 35 36 rings
6 4 9 10 11 12 13 rings

> <PUBCHEM_HEAVY_ATOM_COUNT>
36

> <PUBCHEM_ATOM_DEF_STEREO_COUNT>
5

> <PUBCHEM_ATOM_UDEF_STEREO_COUNT>
0

> <PUBCHEM_BOND_DEF_STEREO_COUNT>
0

> <PUBCHEM_BOND_UDEF_STEREO_COUNT>
0

> <PUBCHEM_ISOTOPIC_ATOM_COUNT>
0

> <PUBCHEM_COMPONENT_COUNT>
1

> <PUBCHEM_CACTVS_TAUTO_COUNT>
1

> <PUBCHEM_CONFORMER_ID>
061B069900000003

> <PUBCHEM_MMFF94_ENERGY>
108.0403

> <PUBCHEM_FEATURE_SELFOVERLAP>
55.842

> <PUBCHEM_SHAPE_FINGERPRINT>
10032420 55 17395617945658228278
11007060 377 18269540793279069948
11227688 84 17187860718396321454
11578080 2 17608680231209929965
11828532 37 16010465537328288667
12107698 1 17386286622722657365
12156800 1 17761165120454984507
12422481 6 18113627746093345120
12597179 24 18041552525678302773
12655364 131 17984690126929634202
13692115 27 17834689562458942326
144659 39 17676201330075590129
15781502 13 17404823400930374439
19315092 285 17770462458436890735
20511986 3 17345480288762286897
20587220 17 17983310227184085953
244849 19 17825961316834031493
469060 322 18261115235617290031
5080951 261 18192138507503882712
54131252 152 18410570692293630748
550186 7 17313104129199117036
563151 248 17607486277846859288
563151 74 18268716009302921881
59755656 520 18271258178780313406
9981440 41 18188473693261350581

> <PUBCHEM_SHAPE_MULTIPOLES>
702.91
10.76
5.1
3.39
8.41
10.24
-1.21
-8.64
-1.82
-0.48
0.45
-4.4
-2.08
1.82

> <PUBCHEM_SHAPE_SELFOVERLAP>
1484.548

> <PUBCHEM_SHAPE_VOLUME>
398.1

> <PUBCHEM_COORDINATE_TYPE>
2
5
10

$$$$
