5274596
  -OEChem-02172602523D

 52 54  0     0  0  0  0  0  0999 V2000
    0.8005   -2.9240    0.1976 O   0  0  0  0  0  0  0  0  0  0  0  0
    4.4702    0.6606    1.1295 O   0  0  0  0  0  0  0  0  0  0  0  0
    4.5685    3.0772    0.0447 O   0  0  0  0  0  0  0  0  0  0  0  0
    2.9245    3.7464   -1.4416 O   0  0  0  0  0  0  0  0  0  0  0  0
   -1.1872   -2.1866   -2.3047 O   0  0  0  0  0  0  0  0  0  0  0  0
   -4.0002   -1.3679   -1.5106 O   0  0  0  0  0  0  0  0  0  0  0  0
    1.5739   -0.2381   -0.4946 N   0  0  0  0  0  0  0  0  0  0  0  0
   -1.8865   -3.2799   -0.3489 N   0  0  0  0  0  0  0  0  0  0  0  0
   -2.3640   -0.2194   -0.2394 N   0  0  0  0  0  0  0  0  0  0  0  0
    2.5447   -0.6185    0.3764 C   0  0  0  0  0  0  0  0  0  0  0  0
    1.7747    1.0402   -0.9642 C   0  0  0  0  0  0  0  0  0  0  0  0
    2.8850    1.5972   -0.4430 C   0  0  0  0  0  0  0  0  0  0  0  0
    3.4597    0.5567    0.4629 C   0  0  0  0  0  0  0  0  0  0  0  0
    2.7407   -1.7469    1.0576 C   0  0  0  0  0  0  0  0  0  0  0  0
    1.8832   -2.8965    0.9998 C   0  0  0  0  0  0  0  0  0  0  0  0
    0.2276   -4.1411    0.3889 C   0  0  0  0  0  0  0  0  0  0  0  0
   -0.9897   -4.4160   -0.3872 C   0  0  0  0  0  0  0  0  0  0  0  0
    0.8044    1.6242   -1.9317 C   0  0  0  0  0  0  0  0  0  0  0  0
    2.0287   -4.0548    1.7024 C   0  0  0  0  0  0  0  0  0  0  0  0
    0.9453   -4.8741    1.3053 C   0  0  0  0  0  0  0  0  0  0  0  0
    3.4319    2.9212   -0.6876 C   0  0  0  0  0  0  0  0  0  0  0  0
   -3.0286    0.9434    0.2139 C   0  0  0  0  0  0  0  0  0  0  0  0
   -1.8843   -2.2964   -1.3088 C   0  0  0  0  0  0  0  0  0  0  0  0
   -4.3306    3.2223    1.1026 C   0  0  0  0  0  0  0  0  0  0  0  0
   -2.3442    1.8504    1.0068 C   0  0  0  0  0  0  0  0  0  0  0  0
   -4.3507    1.1527   -0.1437 C   0  0  0  0  0  0  0  0  0  0  0  0
   -2.8885   -1.2187   -1.0314 C   0  0  0  0  0  0  0  0  0  0  0  0
   -2.9997    2.9976    1.4543 C   0  0  0  0  0  0  0  0  0  0  0  0
   -5.0062    2.2999    0.3035 C   0  0  0  0  0  0  0  0  0  0  0  0
   -5.0316    4.4490    1.5808 C   0  0  0  0  0  0  0  0  0  0  0  0
    5.2285    4.3401   -0.0897 C   0  0  0  0  0  0  0  0  0  0  0  0
    0.7963   -0.8185   -0.7693 H   0  0  0  0  0  0  0  0  0  0  0  0
    3.6065   -1.8215    1.7121 H   0  0  0  0  0  0  0  0  0  0  0  0
   -1.5337   -5.2713    0.0257 H   0  0  0  0  0  0  0  0  0  0  0  0
   -0.7313   -4.6403   -1.4274 H   0  0  0  0  0  0  0  0  0  0  0  0
   -0.1079    1.9333   -1.4123 H   0  0  0  0  0  0  0  0  0  0  0  0
    0.5274    0.8788   -2.6857 H   0  0  0  0  0  0  0  0  0  0  0  0
    1.1979    2.4848   -2.4753 H   0  0  0  0  0  0  0  0  0  0  0  0
    2.8058   -4.2988    2.4133 H   0  0  0  0  0  0  0  0  0  0  0  0
    0.7181   -5.8741    1.6463 H   0  0  0  0  0  0  0  0  0  0  0  0
   -2.5277   -3.2072    0.4361 H   0  0  0  0  0  0  0  0  0  0  0  0
   -1.3946   -0.3127    0.0567 H   0  0  0  0  0  0  0  0  0  0  0  0
   -1.3072    1.6849    1.2859 H   0  0  0  0  0  0  0  0  0  0  0  0
   -4.9343    0.4823   -0.7586 H   0  0  0  0  0  0  0  0  0  0  0  0
   -2.4631    3.7080    2.0776 H   0  0  0  0  0  0  0  0  0  0  0  0
   -6.0438    2.4641    0.0248 H   0  0  0  0  0  0  0  0  0  0  0  0
   -5.7892    4.7769    0.8609 H   0  0  0  0  0  0  0  0  0  0  0  0
   -4.3304    5.2806    1.7085 H   0  0  0  0  0  0  0  0  0  0  0  0
   -5.5207    4.2522    2.5400 H   0  0  0  0  0  0  0  0  0  0  0  0
    5.5400    4.4953   -1.1269 H   0  0  0  0  0  0  0  0  0  0  0  0
    4.5691    5.1483    0.2408 H   0  0  0  0  0  0  0  0  0  0  0  0
    6.1173    4.3289    0.5467 H   0  0  0  0  0  0  0  0  0  0  0  0
  1 15  1  0  0  0  0
  1 16  1  0  0  0  0
  2 13  2  0  0  0  0
  3 21  1  0  0  0  0
  3 31  1  0  0  0  0
  4 21  2  0  0  0  0
  5 23  2  0  0  0  0
  6 27  2  0  0  0  0
  7 10  1  0  0  0  0
  7 11  1  0  0  0  0
  7 32  1  0  0  0  0
  8 17  1  0  0  0  0
  8 23  1  0  0  0  0
  8 41  1  0  0  0  0
  9 22  1  0  0  0  0
  9 27  1  0  0  0  0
  9 42  1  0  0  0  0
 10 13  1  0  0  0  0
 10 14  2  0  0  0  0
 11 12  2  0  0  0  0
 11 18  1  0  0  0  0
 12 13  1  0  0  0  0
 12 21  1  0  0  0  0
 14 15  1  0  0  0  0
 14 33  1  0  0  0  0
 15 19  2  0  0  0  0
 16 17  1  0  0  0  0
 16 20  2  0  0  0  0
 17 34  1  0  0  0  0
 17 35  1  0  0  0  0
 18 36  1  0  0  0  0
 18 37  1  0  0  0  0
 18 38  1  0  0  0  0
 19 20  1  0  0  0  0
 19 39  1  0  0  0  0
 20 40  1  0  0  0  0
 22 25  2  0  0  0  0
 22 26  1  0  0  0  0
 23 27  1  0  0  0  0
 24 28  2  0  0  0  0
 24 29  1  0  0  0  0
 24 30  1  0  0  0  0
 25 28  1  0  0  0  0
 25 43  1  0  0  0  0
 26 29  2  0  0  0  0
 26 44  1  0  0  0  0
 28 45  1  0  0  0  0
 29 46  1  0  0  0  0
 30 47  1  0  0  0  0
 30 48  1  0  0  0  0
 30 49  1  0  0  0  0
 31 50  1  0  0  0  0
 31 51  1  0  0  0  0
 31 52  1  0  0  0  0
M  END
> <PUBCHEM_COMPOUND_CID>
5274596

> <PUBCHEM_CONFORMER_RMSD>
1

> <PUBCHEM_CONFORMER_DIVERSEORDER>
1
171
117
156
18
186
54
108
191
158
149
77
80
259
143
106
127
65
263
204
248
247
6
64
162
109
28
122
207
220
173
249
10
178
147
30
73
230
236
85
233
61
81
103
133
140
217
2
67
148
166
264
216
78
146
181
50
46
192
265
53
105
209
58
174
254
110
48
193
138
189
113
260
33
21
219
187
225
246
202
114
13
112
75
251
132
208
221
60
222
96
142
91
155
256
151
36
139
213
175
71
43
89
131
211
88
258
40
52
190
118
37
243
74
98
87
130
232
120
200
164
123
206
11
3
121
196
32
165
69
161
239
51
44
183
26
179
19
205
97
125
228
102
4
266
68
163
238
242
47
63
214
145
235
195
15
115
229
86
90
199
66
35
253
93
23
203
84
124
210
20
169
126
25
57
224
107
150
231
177
41
172
24
27
101
176
56
144
49
111
38
70
45
237
212
153
240
9
94
31
59
188
255
42
167
141
100
227
104
244
95
39
134
198
119
201
160
218
76
17
241
245
79
7
83
197
8
168
257
152
12
159
215
180
129
136
92
29
154
157
128
252
16
226
137
234
250
135
184
185
82
72
99
55
34
194
170
182
261
116
22
14
5
262
223
62

> <PUBCHEM_MMFF94_PARTIAL_CHARGES>
41
1 -0.28
10 0.11
11 -0.04
12 0.03
13 0.54
14 -0.11
15 0.09
16 -0.04
17 0.48
18 0.14
19 -0.15
2 -0.57
20 -0.15
21 0.71
22 0.12
23 0.63
24 -0.14
25 -0.15
26 -0.15
27 0.63
28 -0.15
29 -0.15
3 -0.43
30 0.14
31 0.28
32 0.4
33 0.15
39 0.15
4 -0.57
40 0.15
41 0.37
42 0.37
43 0.15
44 0.15
45 0.15
46 0.15
5 -0.57
6 -0.57
7 -0.6
8 -0.73
9 -0.55

> <PUBCHEM_EFFECTIVE_ROTOR_COUNT>
9.2

> <PUBCHEM_PHARMACOPHORE_FEATURES>
12
1 1 acceptor
1 2 acceptor
1 4 acceptor
1 5 acceptor
1 6 acceptor
1 7 cation
1 7 donor
1 8 donor
1 9 donor
5 1 15 16 19 20 rings
5 7 10 11 12 13 rings
6 22 24 25 26 28 29 rings

> <PUBCHEM_HEAVY_ATOM_COUNT>
31

> <PUBCHEM_ATOM_DEF_STEREO_COUNT>
0

> <PUBCHEM_ATOM_UDEF_STEREO_COUNT>
0

> <PUBCHEM_BOND_DEF_STEREO_COUNT>
1

> <PUBCHEM_BOND_UDEF_STEREO_COUNT>
0

> <PUBCHEM_ISOTOPIC_ATOM_COUNT>
0

> <PUBCHEM_COMPONENT_COUNT>
1

> <PUBCHEM_CACTVS_TAUTO_COUNT>
28

> <PUBCHEM_CONFORMER_ID>
00507BE400000001

> <PUBCHEM_MMFF94_ENERGY>
69.3634

> <PUBCHEM_FEATURE_SELFOVERLAP>
60.899

> <PUBCHEM_SHAPE_FINGERPRINT>
10032420 55 17985253316831615401
10439779 11 17333659275964766097
10937287 8 18410578400409752977
11434127 23 17981613972414939444
12104220 1 17762056949561940148
12422481 6 17473547945928133561
12788726 201 18124593347445744799
14114206 34 17910936265263596101
15420108 30 18197765623025940338
15463212 79 18339642342977361057
15968369 153 16833474368542929084
16112460 7 18262226829177687696
19319366 153 18411417340967062081
20739085 24 17905327329732641370
20764821 26 17327467328697525185
21796203 349 17900269611184554290
21860390 5 17832157030233294507
23559900 14 17272858597814163621
3493558 16 16672743373474132828
3534868 343 18055035910165369615
4616759 239 17398650790266056448
6609424 69 16615051397063860869
9980921 221 17831040266418749548

> <PUBCHEM_SHAPE_MULTIPOLES>
587.81
10.03
8.06
1.66
11.53
1.06
-0.32
-12.46
3.97
-7.51
0.54
0.45
0.34
-4.7

> <PUBCHEM_SHAPE_SELFOVERLAP>
1270.208

> <PUBCHEM_SHAPE_VOLUME>
321.4

> <PUBCHEM_COORDINATE_TYPE>
2
5
10

$$$$
