163936
  -OEChem-02172602443D

 30 33  0     0  0  0  0  0  0999 V2000
    1.4726   -0.0997   -0.0002 C   0  0  0  0  0  0  0  0  0  0  0  0
    0.4505   -1.0378    0.0410 C   0  0  0  0  0  0  0  0  0  0  0  0
    0.9478    1.1852   -0.0131 C   0  0  0  0  0  0  0  0  0  0  0  0
   -0.8149   -0.3168    0.0558 C   0  0  0  0  0  0  0  0  0  0  0  0
   -0.5038    1.0732    0.0220 C   0  0  0  0  0  0  0  0  0  0  0  0
    2.8317   -0.4043   -0.0250 C   0  0  0  0  0  0  0  0  0  0  0  0
    0.7713   -2.3824    0.0596 C   0  0  0  0  0  0  0  0  0  0  0  0
    1.8108    2.2643   -0.0536 C   0  0  0  0  0  0  0  0  0  0  0  0
   -2.1245   -0.7555    0.0937 C   0  0  0  0  0  0  0  0  0  0  0  0
   -1.5012    2.0293    0.0264 C   0  0  0  0  0  0  0  0  0  0  0  0
    3.1538   -1.7754   -0.0058 C   0  0  0  0  0  0  0  0  0  0  0  0
    3.7073    0.6983   -0.0662 C   0  0  0  0  0  0  0  0  0  0  0  0
   -3.1338    0.2117    0.0982 C   0  0  0  0  0  0  0  0  0  0  0  0
    2.1295   -2.7461    0.0357 C   0  0  0  0  0  0  0  0  0  0  0  0
    3.1943    2.0136   -0.0800 C   0  0  0  0  0  0  0  0  0  0  0  0
   -2.8263    1.5858    0.0648 C   0  0  0  0  0  0  0  0  0  0  0  0
   -4.5278   -0.2061    0.1374 C   0  0  0  0  0  0  0  0  0  0  0  0
   -5.0372   -1.3372   -0.3906 C   0  0  0  0  0  0  0  0  0  0  0  0
    0.0036   -3.1483    0.0916 H   0  0  0  0  0  0  0  0  0  0  0  0
    1.4425    3.2847   -0.0649 H   0  0  0  0  0  0  0  0  0  0  0  0
   -2.3384   -1.8187    0.1325 H   0  0  0  0  0  0  0  0  0  0  0  0
   -1.2761    3.0897    0.0006 H   0  0  0  0  0  0  0  0  0  0  0  0
    4.1921   -2.0967   -0.0231 H   0  0  0  0  0  0  0  0  0  0  0  0
    4.7833    0.5456   -0.0876 H   0  0  0  0  0  0  0  0  0  0  0  0
    2.3983   -3.7998    0.0498 H   0  0  0  0  0  0  0  0  0  0  0  0
    3.8863    2.8519   -0.1118 H   0  0  0  0  0  0  0  0  0  0  0  0
   -3.6227    2.3278    0.0671 H   0  0  0  0  0  0  0  0  0  0  0  0
   -5.2187    0.4815    0.6204 H   0  0  0  0  0  0  0  0  0  0  0  0
   -6.1005   -1.5390   -0.3104 H   0  0  0  0  0  0  0  0  0  0  0  0
   -4.4294   -2.0660   -0.9146 H   0  0  0  0  0  0  0  0  0  0  0  0
  1  2  1  0  0  0  0
  1  3  1  0  0  0  0
  1  6  2  0  0  0  0
  2  4  1  0  0  0  0
  2  7  2  0  0  0  0
  3  5  1  0  0  0  0
  3  8  2  0  0  0  0
  4  5  2  0  0  0  0
  4  9  1  0  0  0  0
  5 10  1  0  0  0  0
  6 11  1  0  0  0  0
  6 12  1  0  0  0  0
  7 14  1  0  0  0  0
  7 19  1  0  0  0  0
  8 15  1  0  0  0  0
  8 20  1  0  0  0  0
  9 13  2  0  0  0  0
  9 21  1  0  0  0  0
 10 16  2  0  0  0  0
 10 22  1  0  0  0  0
 11 14  2  0  0  0  0
 11 23  1  0  0  0  0
 12 15  2  0  0  0  0
 12 24  1  0  0  0  0
 13 16  1  0  0  0  0
 13 17  1  0  0  0  0
 14 25  1  0  0  0  0
 15 26  1  0  0  0  0
 16 27  1  0  0  0  0
 17 18  2  0  0  0  0
 17 28  1  0  0  0  0
 18 29  1  0  0  0  0
 18 30  1  0  0  0  0
M  END
> <PUBCHEM_COMPOUND_CID>
163936

> <PUBCHEM_CONFORMER_RMSD>
0.6

> <PUBCHEM_CONFORMER_DIVERSEORDER>
1

> <PUBCHEM_MMFF94_PARTIAL_CHARGES>
24
10 -0.15
11 -0.15
12 -0.15
13 0.03
14 -0.15
15 -0.15
16 -0.15
17 -0.18
18 -0.3
19 0.15
20 0.15
21 0.15
22 0.15
23 0.15
24 0.15
25 0.15
26 0.15
27 0.15
28 0.15
29 0.15
30 0.15
7 -0.15
8 -0.15
9 -0.15

> <PUBCHEM_EFFECTIVE_ROTOR_COUNT>
1

> <PUBCHEM_PHARMACOPHORE_FEATURES>
5
1 18 hydrophobe
5 1 2 3 4 5 rings
6 1 2 6 7 11 14 rings
6 1 3 6 8 12 15 rings
6 4 5 9 10 13 16 rings

> <PUBCHEM_HEAVY_ATOM_COUNT>
18

> <PUBCHEM_ATOM_DEF_STEREO_COUNT>
0

> <PUBCHEM_ATOM_UDEF_STEREO_COUNT>
0

> <PUBCHEM_BOND_DEF_STEREO_COUNT>
0

> <PUBCHEM_BOND_UDEF_STEREO_COUNT>
0

> <PUBCHEM_ISOTOPIC_ATOM_COUNT>
0

> <PUBCHEM_COMPONENT_COUNT>
1

> <PUBCHEM_CACTVS_TAUTO_COUNT>
1

> <PUBCHEM_CONFORMER_ID>
0002806000000001

> <PUBCHEM_MMFF94_ENERGY>
78.2379

> <PUBCHEM_FEATURE_SELFOVERLAP>
25.677

> <PUBCHEM_SHAPE_FINGERPRINT>
10090160 65 18261668298138874455
10411042 1 18122344571395135002
10608611 8 18335700481842786621
10616163 171 18341053016480050759
10967382 1 18410575119196962072
10980938 120 18410857646524984882
11471102 20 18409728477905384935
11578080 2 17096916971829930350
11680986 33 18262529189921157706
11806522 49 18409448081213534799
12107183 9 17766288579006121689
12236239 1 17846502560783995699
12403259 226 18335696079590946596
12553582 1 17617098001494914586
13140716 1 18122336045952708666
13380535 76 18334858367525633466
138480 1 18266178327722618570
13862211 1 18337390440527468274
14178342 30 18124021339421854624
14223421 5 18336546027822439485
14251717 144 18410572898572386447
14576447 43 18128243683617337695
14787075 74 17986387999919879777
14790565 3 17977395159036702029
14844126 61 16386478309558229482
15196674 1 18410856525449031657
15375462 6 18409450284468441189
15442244 35 18195530281236295825
15536298 74 18342458118961465696
16945 1 18410014333975610256
17492 89 18339923714959401951
19591789 44 17906457979857157731
200 152 18272645758417997325
20028762 73 18272926137387874511
20559304 39 18411136909672743824
20645477 70 18408317792119290463
20691752 17 17604155817722695569
21267235 1 18411990130411418646
21501502 16 18338803295103229273
221490 88 18336835199291101211
22854114 111 18410295813010028268
2334 1 17762059143809426858
23366157 5 18041003891014454602
23463225 33 18337672988696837560
23559900 14 18267576923112757275
2748010 2 17905619044243207770
2871803 45 18408600366528306271
3286 77 18260546676088277406
335352 9 18050286960081723645
33824 294 18409447028777742290
350125 39 18410857633529748376
352729 6 18048888677649028520
42630746 31 18341330075734158078
4409770 3 14307191518790130877
46194498 28 17533480482570213759
5104073 3 18411137996341759569
602551 16 15266486474228673719
7364860 26 18412545384094227128
7832392 63 17979637835964719601
8272917 22 18412269423818724823
9709674 26 18408610231963086403

> <PUBCHEM_SHAPE_MULTIPOLES>
370.43
7.56
2.78
0.63
7.21
0.47
0
1.04
-0.39
-1.79
-0.02
0.05
0.01
-0.22

> <PUBCHEM_SHAPE_SELFOVERLAP>
856.099

> <PUBCHEM_SHAPE_VOLUME>
179.9

> <PUBCHEM_COORDINATE_TYPE>
2
5
10

$$$$
