5459131
  -OEChem-02172602363D

 52 53  0     1  0  0  0  0  0999 V2000
    2.5051    1.3654    1.3724 O   0  0  0  0  0  0  0  0  0  0  0  0
    3.4151   -0.4441    0.1359 O   0  0  0  0  0  0  0  0  0  0  0  0
    2.2780    2.7750   -2.5216 O   0  0  0  0  0  0  0  0  0  0  0  0
   -0.1121    2.0869   -1.1214 O   0  0  0  0  0  0  0  0  0  0  0  0
    3.9976    3.1076   -0.3589 O   0  0  0  0  0  0  0  0  0  0  0  0
    0.3225    0.9169    2.9625 O   0  0  0  0  0  0  0  0  0  0  0  0
    4.4213   -3.2544    0.4089 O   0  0  0  0  0  0  0  0  0  0  0  0
    0.9163   -2.3396    0.1098 O   0  0  0  0  0  0  0  0  0  0  0  0
    0.0193   -2.7844   -1.9723 O   0  0  0  0  0  0  0  0  0  0  0  0
   -6.9994    1.0670    0.8890 O   0  0  0  0  0  0  0  0  0  0  0  0
    2.2455    1.8371   -1.4482 C   0  0  2  0  0  0  0  0  0  0  0  0
    1.1444    2.2354   -0.4648 C   0  0  2  0  0  0  0  0  0  0  0  0
    3.6084    1.7915   -0.7551 C   0  0  2  0  0  0  0  0  0  0  0  0
    1.2017    1.3412    0.7816 C   0  0  2  0  0  0  0  0  0  0  0  0
    3.5525    0.9247    0.5015 C   0  0  1  0  0  0  0  0  0  0  0  0
    0.2170    1.7940    1.8561 C   0  0  0  0  0  0  0  0  0  0  0  0
    3.3594   -1.2845    1.2797 C   0  0  0  0  0  0  0  0  0  0  0  0
    3.1645   -2.7334    0.8478 C   0  0  1  0  0  0  0  0  0  0  0  0
    2.1806   -2.8420   -0.3097 C   0  0  0  0  0  0  0  0  0  0  0  0
   -0.0743   -2.3721   -0.8271 C   0  0  0  0  0  0  0  0  0  0  0  0
   -1.3000   -1.8132   -0.2128 C   0  0  0  0  0  0  0  0  0  0  0  0
   -2.1944   -1.1778   -0.9832 C   0  0  0  0  0  0  0  0  0  0  0  0
   -3.4532   -0.5896   -0.4927 C   0  0  0  0  0  0  0  0  0  0  0  0
   -3.6037   -0.2943    0.8623 C   0  0  0  0  0  0  0  0  0  0  0  0
   -4.4945   -0.3280   -1.3833 C   0  0  0  0  0  0  0  0  0  0  0  0
   -4.7953    0.2624    1.3266 C   0  0  0  0  0  0  0  0  0  0  0  0
   -5.6861    0.2287   -0.9190 C   0  0  0  0  0  0  0  0  0  0  0  0
   -5.8365    0.5238    0.4360 C   0  0  0  0  0  0  0  0  0  0  0  0
    2.0124    0.8589   -1.8873 H   0  0  0  0  0  0  0  0  0  0  0  0
    1.2504    3.2926   -0.1944 H   0  0  0  0  0  0  0  0  0  0  0  0
    4.3624    1.4229   -1.4602 H   0  0  0  0  0  0  0  0  0  0  0  0
    0.9541    0.3066    0.5208 H   0  0  0  0  0  0  0  0  0  0  0  0
    4.4903    1.0429    1.0583 H   0  0  0  0  0  0  0  0  0  0  0  0
    0.4577    2.8035    2.2051 H   0  0  0  0  0  0  0  0  0  0  0  0
   -0.8130    1.7743    1.4871 H   0  0  0  0  0  0  0  0  0  0  0  0
    2.9894    2.5027   -3.1261 H   0  0  0  0  0  0  0  0  0  0  0  0
   -0.2274    1.1469   -1.3418 H   0  0  0  0  0  0  0  0  0  0  0  0
    4.8871    3.0466    0.0292 H   0  0  0  0  0  0  0  0  0  0  0  0
    2.5174   -0.9984    1.9189 H   0  0  0  0  0  0  0  0  0  0  0  0
    4.2886   -1.1816    1.8525 H   0  0  0  0  0  0  0  0  0  0  0  0
    2.8376   -3.3304    1.7057 H   0  0  0  0  0  0  0  0  0  0  0  0
   -0.3143    1.2209    3.6315 H   0  0  0  0  0  0  0  0  0  0  0  0
    2.5333   -2.3080   -1.2008 H   0  0  0  0  0  0  0  0  0  0  0  0
    2.0769   -3.8975   -0.5920 H   0  0  0  0  0  0  0  0  0  0  0  0
    4.7368   -2.6945   -0.3211 H   0  0  0  0  0  0  0  0  0  0  0  0
   -1.4050   -1.9348    0.8587 H   0  0  0  0  0  0  0  0  0  0  0  0
   -2.0238   -1.0917   -2.0541 H   0  0  0  0  0  0  0  0  0  0  0  0
   -2.8133   -0.4606    1.5883 H   0  0  0  0  0  0  0  0  0  0  0  0
   -4.3951   -0.5527   -2.4425 H   0  0  0  0  0  0  0  0  0  0  0  0
   -4.9054    0.4949    2.3823 H   0  0  0  0  0  0  0  0  0  0  0  0
   -6.4899    0.4275   -1.6229 H   0  0  0  0  0  0  0  0  0  0  0  0
   -7.6078    1.1799    0.1386 H   0  0  0  0  0  0  0  0  0  0  0  0
  1 14  1  0  0  0  0
  1 15  1  0  0  0  0
  2 15  1  0  0  0  0
  2 17  1  0  0  0  0
  3 11  1  0  0  0  0
  3 36  1  0  0  0  0
  4 12  1  0  0  0  0
  4 37  1  0  0  0  0
  5 13  1  0  0  0  0
  5 38  1  0  0  0  0
  6 16  1  0  0  0  0
  6 42  1  0  0  0  0
  7 18  1  0  0  0  0
  7 45  1  0  0  0  0
  8 19  1  0  0  0  0
  8 20  1  0  0  0  0
  9 20  2  0  0  0  0
 10 28  1  0  0  0  0
 10 52  1  0  0  0  0
 11 12  1  0  0  0  0
 11 13  1  0  0  0  0
 11 29  1  0  0  0  0
 12 14  1  0  0  0  0
 12 30  1  0  0  0  0
 13 15  1  0  0  0  0
 13 31  1  0  0  0  0
 14 16  1  0  0  0  0
 14 32  1  0  0  0  0
 15 33  1  0  0  0  0
 16 34  1  0  0  0  0
 16 35  1  0  0  0  0
 17 18  1  0  0  0  0
 17 39  1  0  0  0  0
 17 40  1  0  0  0  0
 18 19  1  0  0  0  0
 18 41  1  0  0  0  0
 19 43  1  0  0  0  0
 19 44  1  0  0  0  0
 20 21  1  0  0  0  0
 21 22  2  0  0  0  0
 21 46  1  0  0  0  0
 22 23  1  0  0  0  0
 22 47  1  0  0  0  0
 23 24  2  0  0  0  0
 23 25  1  0  0  0  0
 24 26  1  0  0  0  0
 24 48  1  0  0  0  0
 25 27  2  0  0  0  0
 25 49  1  0  0  0  0
 26 28  2  0  0  0  0
 26 50  1  0  0  0  0
 27 28  1  0  0  0  0
 27 51  1  0  0  0  0
M  END
> <PUBCHEM_COMPOUND_CID>
5459131

> <PUBCHEM_CONFORMER_RMSD>
1.2

> <PUBCHEM_CONFORMER_DIVERSEORDER>
1
89
121
44
48
177
28
154
162
63
133
145
46
93
140
56
11
49
33
92
80
38
7
120
131
85
2
135
17
3
111
123
94
29
157
170
60
8
68
78
128
55
51
73
146
113
129
100
22
161
153
45
112
148
118
19
150
95
178
90
165
35
50
163
130
57
106
40
58
12
138
104
59
82
47
67
20
115
149
109
10
83
13
9
166
134
181
36
31
159
4
98
180
26
79
139
122
101
21
66
125
119
75
34
142
172
54
137
42
5
24
141
116
15
37
143
88
117
16
43
160
176
81
32
174
39
126
84
97
147
76
102
86
151
179
168
155
108
53
65
91
18
136
62
114
71
23
99
30
173
77
103
124
127
52
61
87
144
132
69
175
169
64
41
96
70
164
27
25
152
6
105
74
171
110
158
14
107
156
72
167

> <PUBCHEM_MMFF94_PARTIAL_CHARGES>
40
1 -0.56
10 -0.53
11 0.28
12 0.28
13 0.28
14 0.28
15 0.56
16 0.28
17 0.28
18 0.28
19 0.28
2 -0.56
20 0.71
21 -0.14
22 -0.18
23 0.03
24 -0.15
25 -0.15
26 -0.15
27 -0.15
28 0.08
3 -0.68
36 0.4
37 0.4
38 0.4
4 -0.68
42 0.4
45 0.4
46 0.15
47 0.15
48 0.15
49 0.15
5 -0.68
50 0.15
51 0.15
52 0.45
6 -0.68
7 -0.68
8 -0.43
9 -0.57

> <PUBCHEM_EFFECTIVE_ROTOR_COUNT>
10.2

> <PUBCHEM_PHARMACOPHORE_FEATURES>
16
1 1 acceptor
1 10 donor
1 2 acceptor
1 3 acceptor
1 3 donor
1 4 acceptor
1 4 donor
1 5 acceptor
1 5 donor
1 6 acceptor
1 6 donor
1 7 acceptor
1 7 donor
1 9 acceptor
6 1 11 12 13 14 15 rings
6 23 24 25 26 27 28 rings

> <PUBCHEM_HEAVY_ATOM_COUNT>
28

> <PUBCHEM_ATOM_DEF_STEREO_COUNT>
1

> <PUBCHEM_ATOM_UDEF_STEREO_COUNT>
5

> <PUBCHEM_BOND_DEF_STEREO_COUNT>
1

> <PUBCHEM_BOND_UDEF_STEREO_COUNT>
0

> <PUBCHEM_ISOTOPIC_ATOM_COUNT>
0

> <PUBCHEM_COMPONENT_COUNT>
1

> <PUBCHEM_CACTVS_TAUTO_COUNT>
2

> <PUBCHEM_CONFORMER_ID>
00534CBB00000001

> <PUBCHEM_MMFF94_ENERGY>
73.593

> <PUBCHEM_FEATURE_SELFOVERLAP>
81.265

> <PUBCHEM_SHAPE_FINGERPRINT>
10688039 33 18043809775927325622
11578080 2 16663215851573289458
12156800 1 16912314411566395286
12166972 35 18341048502210979179
12422481 6 18196080050066811873
12788726 201 17560816423699182217
13075007 39 17967828158265609323
13947920 75 17131846382001944672
14464042 87 17703508796868761547
151778 21 18188212129579139229
17921350 177 17315324073087413031
18336668 15 18198900323035481506
21033648 29 17458613485640876599
23559900 14 16660371338279141591
338550 245 18197785410045586393
4409770 3 15605704060508791247
474 4 18413666903409390607
513532 50 16917348151797093110
57724786 102 18261115166871270341
5951187 136 16630807724837938505
8509985 295 18060414707861541521

> <PUBCHEM_SHAPE_MULTIPOLES>
517.53
11.63
3.81
1.92
19.37
1.33
0.26
-1.93
1.33
-5.9
-1.03
-0.19
-0.86
-1.88

> <PUBCHEM_SHAPE_SELFOVERLAP>
1070.777

> <PUBCHEM_SHAPE_VOLUME>
291.7

> <PUBCHEM_COORDINATE_TYPE>
2
5
10

$$$$
