76972451
  -OEChem-02172602593D

 44 47  0     1  0  0  0  0  0999 V2000
   -3.4461    1.1610   -0.8210 O   0  0  0  0  0  0  0  0  0  0  0  0
   -1.4598   -0.9236   -0.2893 N   0  0  1  0  0  0  0  0  0  0  0  0
    1.7185    0.6472    0.4725 N   0  0  2  0  0  0  0  0  0  0  0  0
   -0.4748    1.3885   -0.5454 C   0  0  2  0  0  0  0  0  0  0  0  0
    0.7302   -0.5352   -1.4883 C   0  0  2  0  0  0  0  0  0  0  0  0
   -1.3806    0.4330    0.2956 C   0  0  1  0  0  0  0  0  0  0  0  0
    2.0350   -0.0789   -0.7758 C   0  0  2  0  0  0  0  0  0  0  0  0
   -0.0658    0.7219   -1.8614 C   0  0  0  0  0  0  0  0  0  0  0  0
   -0.1394   -1.4788   -0.6124 C   0  0  0  0  0  0  0  0  0  0  0  0
    0.8113    1.7816    0.2227 C   0  0  0  0  0  0  0  0  0  0  0  0
   -2.8109    1.0045    0.4480 C   0  0  2  0  0  0  0  0  0  0  0  0
    2.9835   -1.2651   -0.5164 C   0  0  0  0  0  0  0  0  0  0  0  0
   -2.2248   -1.8428    0.5625 C   0  0  0  0  0  0  0  0  0  0  0  0
    2.9330    1.1116    1.1576 C   0  0  0  0  0  0  0  0  0  0  0  0
   -3.6805    0.0818    1.3033 C   0  0  0  0  0  0  0  0  0  0  0  0
    4.2463   -0.8154    0.2107 C   0  0  0  0  0  0  0  0  0  0  0  0
   -3.6557   -1.3460    0.7644 C   0  0  0  0  0  0  0  0  0  0  0  0
    3.8806   -0.0450    1.4727 C   0  0  0  0  0  0  0  0  0  0  0  0
   -1.0170    2.3132   -0.7794 H   0  0  0  0  0  0  0  0  0  0  0  0
    0.9994   -1.0590   -2.4146 H   0  0  0  0  0  0  0  0  0  0  0  0
   -0.9609    0.3551    1.3090 H   0  0  0  0  0  0  0  0  0  0  0  0
    2.5625    0.6072   -1.4561 H   0  0  0  0  0  0  0  0  0  0  0  0
    0.5445    1.4028   -2.4675 H   0  0  0  0  0  0  0  0  0  0  0  0
   -0.9446    0.4686   -2.4669 H   0  0  0  0  0  0  0  0  0  0  0  0
   -0.2825   -2.4093   -1.1769 H   0  0  0  0  0  0  0  0  0  0  0  0
    0.3769   -1.7594    0.3122 H   0  0  0  0  0  0  0  0  0  0  0  0
    1.3332    2.5602   -0.3507 H   0  0  0  0  0  0  0  0  0  0  0  0
    0.5205    2.2350    1.1788 H   0  0  0  0  0  0  0  0  0  0  0  0
   -2.7622    1.9949    0.9157 H   0  0  0  0  0  0  0  0  0  0  0  0
    3.2617   -1.7326   -1.4685 H   0  0  0  0  0  0  0  0  0  0  0  0
    2.4962   -2.0411    0.0842 H   0  0  0  0  0  0  0  0  0  0  0  0
   -1.7352   -1.9683    1.5371 H   0  0  0  0  0  0  0  0  0  0  0  0
   -2.2738   -2.8336    0.0946 H   0  0  0  0  0  0  0  0  0  0  0  0
    2.6608    1.5961    2.1032 H   0  0  0  0  0  0  0  0  0  0  0  0
    3.4604    1.8586    0.5497 H   0  0  0  0  0  0  0  0  0  0  0  0
   -4.7170    0.4377    1.3231 H   0  0  0  0  0  0  0  0  0  0  0  0
   -3.3108    0.0853    2.3359 H   0  0  0  0  0  0  0  0  0  0  0  0
    4.8456   -0.1780   -0.4508 H   0  0  0  0  0  0  0  0  0  0  0  0
    4.8622   -1.6847    0.4659 H   0  0  0  0  0  0  0  0  0  0  0  0
   -4.1833   -2.0106    1.4580 H   0  0  0  0  0  0  0  0  0  0  0  0
   -4.1972   -1.3896   -0.1891 H   0  0  0  0  0  0  0  0  0  0  0  0
    3.4079   -0.7235    2.1941 H   0  0  0  0  0  0  0  0  0  0  0  0
    4.7905    0.3414    1.9456 H   0  0  0  0  0  0  0  0  0  0  0  0
   -4.3205    1.5568   -0.6654 H   0  0  0  0  0  0  0  0  0  0  0  0
  1 11  1  0  0  0  0
  1 44  1  0  0  0  0
  2  6  1  0  0  0  0
  2  9  1  0  0  0  0
  2 13  1  0  0  0  0
  3  7  1  0  0  0  0
  3 10  1  0  0  0  0
  3 14  1  0  0  0  0
  4  6  1  0  0  0  0
  4  8  1  0  0  0  0
  4 10  1  0  0  0  0
  4 19  1  0  0  0  0
  5  7  1  0  0  0  0
  5  8  1  0  0  0  0
  5  9  1  0  0  0  0
  5 20  1  0  0  0  0
  6 11  1  0  0  0  0
  6 21  1  0  0  0  0
  7 12  1  0  0  0  0
  7 22  1  0  0  0  0
  8 23  1  0  0  0  0
  8 24  1  0  0  0  0
  9 25  1  0  0  0  0
  9 26  1  0  0  0  0
 10 27  1  0  0  0  0
 10 28  1  0  0  0  0
 11 15  1  0  0  0  0
 11 29  1  0  0  0  0
 12 16  1  0  0  0  0
 12 30  1  0  0  0  0
 12 31  1  0  0  0  0
 13 17  1  0  0  0  0
 13 32  1  0  0  0  0
 13 33  1  0  0  0  0
 14 18  1  0  0  0  0
 14 34  1  0  0  0  0
 14 35  1  0  0  0  0
 15 17  1  0  0  0  0
 15 36  1  0  0  0  0
 15 37  1  0  0  0  0
 16 18  1  0  0  0  0
 16 38  1  0  0  0  0
 16 39  1  0  0  0  0
 17 40  1  0  0  0  0
 17 41  1  0  0  0  0
 18 42  1  0  0  0  0
 18 43  1  0  0  0  0
M  END
> <PUBCHEM_COMPOUND_CID>
76972451

> <PUBCHEM_CONFORMER_RMSD>
0.6

> <PUBCHEM_CONFORMER_DIVERSEORDER>
1
2

> <PUBCHEM_MMFF94_PARTIAL_CHARGES>
11
1 -0.68
10 0.27
11 0.28
13 0.27
14 0.27
2 -0.81
3 -0.81
44 0.4
6 0.27
7 0.27
9 0.27

> <PUBCHEM_EFFECTIVE_ROTOR_COUNT>
2.2

> <PUBCHEM_PHARMACOPHORE_FEATURES>
8
1 1 acceptor
1 1 donor
1 2 cation
1 3 cation
6 2 4 5 6 8 9 rings
6 2 6 11 13 15 17 rings
6 3 4 5 7 8 10 rings
6 3 7 12 14 16 18 rings

> <PUBCHEM_HEAVY_ATOM_COUNT>
18

> <PUBCHEM_ATOM_DEF_STEREO_COUNT>
5

> <PUBCHEM_ATOM_UDEF_STEREO_COUNT>
0

> <PUBCHEM_BOND_DEF_STEREO_COUNT>
0

> <PUBCHEM_BOND_UDEF_STEREO_COUNT>
0

> <PUBCHEM_ISOTOPIC_ATOM_COUNT>
0

> <PUBCHEM_COMPONENT_COUNT>
1

> <PUBCHEM_CACTVS_TAUTO_COUNT>
1

> <PUBCHEM_CONFORMER_ID>
049681A300000001

> <PUBCHEM_MMFF94_ENERGY>
32.0162

> <PUBCHEM_FEATURE_SELFOVERLAP>
41.873

> <PUBCHEM_SHAPE_FINGERPRINT>
11132069 177 18410855438664069759
11471102 22 17775008959764553884
11578080 2 16733529637180785660
11640471 11 14620797084941973978
11769659 78 17167864170676778832
12011746 2 18271526390591974644
12077114 3 18341609304711926785
12119455 92 16988556871065465292
121448 382 12823288009701507133
12251169 10 18272933859896249410
12346177 29 18187356636845326295
12382932 28 18343580759088409632
124424 183 18410009914390920253
12491281 212 15051728715939479662
12500047 106 18188204295711648397
12507560 40 18341328972059509912
12633257 1 18342176639742497000
12644460 14 18190762996640332544
12670545 47 18272650143062609404
12670546 177 11675175786076399194
12892183 10 18059857298189163458
13083527 12 17769082789875972183
13296908 3 18114179756691281512
13299463 15 11530481112523206796
13581323 91 18408892849258192131
13705890 14 13262398890576119434
14178342 30 18269574783649756995
15219456 202 18202003226479609402
15309172 13 17346596370146621214
15653759 3 18410578387551055946
15906896 17 15287577121108966238
16945 1 18335708191224466229
17804303 29 18410022026066917047
17834072 14 18411130377249039327
1813 80 17240486901086277774
18175812 5 18342739606780932348
18186145 218 12175634978916340856
19049666 15 17983866583449376324
19422 9 16081096969277623821
19765921 60 12247412180393713015
19784866 170 18271802450153099120
19862831 5 11746925495246549914
200 152 17632286896456208943
20361792 2 16660641894583419574
20871999 31 8718823180909603033
21501502 16 18267877261928768797
21524375 3 12607412069967903116
21731228 192 17418091052875556846
21731516 1 16660636380061617682
22112679 90 17023196976140088284
23114952 82 8429781381929304552
23184049 59 17775566425144958416
232386 152 18114753714724958311
23402539 116 18410845548246008885
23419403 2 13754377713640600247
23559900 14 18265904566549688358
25 1 9295023378726615350
2748010 2 18271537424283947383
353137 74 9007063465065576407
4340502 62 15769232625986070071
465052 167 17096955605672739467
474 4 14549025389686658786
5262128 65 12973874854794562986
83771 10 16370723729739530686
90316 7 17968095278897536501

> <PUBCHEM_SHAPE_MULTIPOLES>
354.6
6.99
1.76
1.44
0.85
0.11
0.21
1.23
-3.22
-0.47
-0.02
0.28
-0.12
0.72

> <PUBCHEM_SHAPE_SELFOVERLAP>
747.516

> <PUBCHEM_SHAPE_VOLUME>
193.2

> <PUBCHEM_COORDINATE_TYPE>
2
5
10

$$$$
