482788
  -OEChem-02172602313D

 38 40  0     1  0  0  0  0  0999 V2000
    1.8103    1.3271    0.2303 O   0  0  0  0  0  0  0  0  0  0  0  0
   -3.6615   -1.7302    0.2279 O   0  0  0  0  0  0  0  0  0  0  0  0
    4.1214    1.4169    0.2715 O   0  0  0  0  0  0  0  0  0  0  0  0
   -1.4154   -0.7638   -0.1429 C   0  0  1  0  0  0  0  0  0  0  0  0
   -0.5480    0.4785    0.2898 C   0  0  1  0  0  0  0  0  0  0  0  0
    0.8964    0.3108   -0.2051 C   0  0  2  0  0  0  0  0  0  0  0  0
   -0.7162   -2.0951    0.2833 C   0  0  0  0  0  0  0  0  0  0  0  0
    1.4902   -0.9557    0.3859 C   0  0  1  0  0  0  0  0  0  0  0  0
   -2.7978   -0.6510    0.5743 C   0  0  1  0  0  0  0  0  0  0  0  0
    0.7648   -2.1868   -0.1256 C   0  0  0  0  0  0  0  0  0  0  0  0
   -1.2737    1.7642   -0.0783 C   0  0  0  0  0  0  0  0  0  0  0  0
   -3.5099    0.6820    0.2961 C   0  0  0  0  0  0  0  0  0  0  0  0
   -1.6146   -0.8203   -1.6844 C   0  0  0  0  0  0  0  0  0  0  0  0
   -2.6262    1.8957    0.5841 C   0  0  0  0  0  0  0  0  0  0  0  0
    2.9141   -0.6789    0.0800 C   0  0  0  0  0  0  0  0  0  0  0  0
    3.0782    0.7952    0.1920 C   0  0  0  0  0  0  0  0  0  0  0  0
   -0.8172    2.7117   -0.9114 C   0  0  0  0  0  0  0  0  0  0  0  0
    3.9049   -1.5002   -0.2676 C   0  0  0  0  0  0  0  0  0  0  0  0
   -0.4910    0.4932    1.3901 H   0  0  0  0  0  0  0  0  0  0  0  0
    0.9223    0.3079   -1.3041 H   0  0  0  0  0  0  0  0  0  0  0  0
   -1.2528   -2.9592   -0.1278 H   0  0  0  0  0  0  0  0  0  0  0  0
   -0.7720   -2.1927    1.3760 H   0  0  0  0  0  0  0  0  0  0  0  0
    1.4036   -0.9358    1.4835 H   0  0  0  0  0  0  0  0  0  0  0  0
   -2.6316   -0.7249    1.6573 H   0  0  0  0  0  0  0  0  0  0  0  0
    1.2042   -3.0936    0.3062 H   0  0  0  0  0  0  0  0  0  0  0  0
    0.8609   -2.2786   -1.2133 H   0  0  0  0  0  0  0  0  0  0  0  0
   -4.4211    0.7417    0.9048 H   0  0  0  0  0  0  0  0  0  0  0  0
   -3.8619    0.7085   -0.7429 H   0  0  0  0  0  0  0  0  0  0  0  0
   -2.1119    0.0724   -2.0744 H   0  0  0  0  0  0  0  0  0  0  0  0
   -0.6691   -0.9185   -2.2246 H   0  0  0  0  0  0  0  0  0  0  0  0
   -2.2313   -1.6811   -1.9672 H   0  0  0  0  0  0  0  0  0  0  0  0
   -2.4790    1.9911    1.6673 H   0  0  0  0  0  0  0  0  0  0  0  0
   -3.1478    2.8039    0.2593 H   0  0  0  0  0  0  0  0  0  0  0  0
   -4.4886   -1.6173    0.7265 H   0  0  0  0  0  0  0  0  0  0  0  0
    0.1407    2.6321   -1.4110 H   0  0  0  0  0  0  0  0  0  0  0  0
   -1.4039    3.5995   -1.1245 H   0  0  0  0  0  0  0  0  0  0  0  0
    3.7391   -2.5687   -0.3513 H   0  0  0  0  0  0  0  0  0  0  0  0
    4.9030   -1.1301   -0.4763 H   0  0  0  0  0  0  0  0  0  0  0  0
  1  6  1  0  0  0  0
  1 16  1  0  0  0  0
  2  9  1  0  0  0  0
  2 34  1  0  0  0  0
  3 16  2  0  0  0  0
  4  5  1  0  0  0  0
  4  7  1  0  0  0  0
  4  9  1  0  0  0  0
  4 13  1  0  0  0  0
  5  6  1  0  0  0  0
  5 11  1  0  0  0  0
  5 19  1  0  0  0  0
  6  8  1  0  0  0  0
  6 20  1  0  0  0  0
  7 10  1  0  0  0  0
  7 21  1  0  0  0  0
  7 22  1  0  0  0  0
  8 10  1  0  0  0  0
  8 15  1  0  0  0  0
  8 23  1  0  0  0  0
  9 12  1  0  0  0  0
  9 24  1  0  0  0  0
 10 25  1  0  0  0  0
 10 26  1  0  0  0  0
 11 14  1  0  0  0  0
 11 17  2  0  0  0  0
 12 14  1  0  0  0  0
 12 27  1  0  0  0  0
 12 28  1  0  0  0  0
 13 29  1  0  0  0  0
 13 30  1  0  0  0  0
 13 31  1  0  0  0  0
 14 32  1  0  0  0  0
 14 33  1  0  0  0  0
 15 16  1  0  0  0  0
 15 18  2  0  0  0  0
 17 35  1  0  0  0  0
 17 36  1  0  0  0  0
 18 37  1  0  0  0  0
 18 38  1  0  0  0  0
M  END
> <PUBCHEM_COMPOUND_CID>
482788

> <PUBCHEM_CONFORMER_RMSD>
0.6

> <PUBCHEM_CONFORMER_DIVERSEORDER>
1

> <PUBCHEM_MMFF94_PARTIAL_CHARGES>
18
1 -0.43
11 -0.28
14 0.14
15 -0.12
16 0.71
17 -0.3
18 -0.3
2 -0.68
3 -0.57
34 0.4
35 0.15
36 0.15
37 0.15
38 0.15
5 0.14
6 0.28
8 0.14
9 0.28

> <PUBCHEM_EFFECTIVE_ROTOR_COUNT>
1.2

> <PUBCHEM_PHARMACOPHORE_FEATURES>
6
1 2 acceptor
1 2 donor
1 3 acceptor
5 1 6 8 15 16 rings
6 4 5 6 7 8 10 rings
6 4 5 9 11 12 14 rings

> <PUBCHEM_HEAVY_ATOM_COUNT>
18

> <PUBCHEM_ATOM_DEF_STEREO_COUNT>
5

> <PUBCHEM_ATOM_UDEF_STEREO_COUNT>
0

> <PUBCHEM_BOND_DEF_STEREO_COUNT>
0

> <PUBCHEM_BOND_UDEF_STEREO_COUNT>
0

> <PUBCHEM_ISOTOPIC_ATOM_COUNT>
0

> <PUBCHEM_COMPONENT_COUNT>
1

> <PUBCHEM_CACTVS_TAUTO_COUNT>
1

> <PUBCHEM_CONFORMER_ID>
00075DE400000001

> <PUBCHEM_MMFF94_ENERGY>
51.4982

> <PUBCHEM_FEATURE_SELFOVERLAP>
30.536

> <PUBCHEM_SHAPE_FINGERPRINT>
10411042 1 16754094066066170186
10498660 4 18334573529552860180
10608611 8 18339078185963659904
10863032 1 18341615897270383491
10922523 26 18129944468853970430
10967382 1 18266179619996084816
11132069 177 18411696569359482761
12011746 2 18265334993587768013
12382932 28 18409169896208042881
12403259 226 18410853227114452592
13132413 78 18340208617108648061
13140716 1 18339634521920653328
13214271 11 18410008866566586525
13221675 6 18338797806145567898
14223421 5 18337392617315965747
14614273 12 18262509291385167605
14787075 74 17535476150996578867
15196674 1 18411139134149259643
15309172 13 18340212877689429275
15375462 478 18270967950660136599
15442244 35 18338797802219872418
15536298 74 18343022185922908154
15775835 57 18272091590913170992
16945 1 18048877399138703755
17804303 29 18338806593880686222
17844478 74 18334863804964734131
18186145 218 18336263457792546758
19591789 44 18339083687822294090
200 152 18059561474095942741
20510252 161 18343023306498000641
20525323 117 18341323461484405276
21267235 1 18339090314777405915
21501502 16 18412261723000255352
21524375 3 18340768117918351018
2334 1 18410849967229156008
23388829 49 18338800138634329269
23402539 116 18268982245023282534
23463225 33 18408044013206769120
23559900 14 18341891849583880640
238 59 17180774408619732525
2748010 2 18410008844791115197
335352 9 18194966236092458046
34934 24 18336259077152842585
350125 39 18338241444830240760
353137 74 18335689563988096642
43471831 8 18334574620490670027
5104073 3 18411983546379178386
69090 78 18202276962057108583
7097593 13 17464240643901260738
7364860 26 18126287428549918366
81228 2 18265883834146159074
84936 31 16127258745225767135
8809292 202 18262525796844168458
9709674 26 18412832403953357902

> <PUBCHEM_SHAPE_MULTIPOLES>
352.82
6.2
2.61
0.9
3.14
0.43
-0.3
0.12
0.76
-0.56
-0.19
-0.39
-0.02
0.16

> <PUBCHEM_SHAPE_SELFOVERLAP>
754.347

> <PUBCHEM_SHAPE_VOLUME>
193.4

> <PUBCHEM_COORDINATE_TYPE>
2
5
10

$$$$
