10115050
  -OEChem-02172602533D

 62 63  0     1  0  0  0  0  0999 V2000
    1.3565   -2.0264   -0.5092 S   0  0  0  0  0  0  0  0  0  0  0  0
   -0.0412    5.6105    0.0701 O   0  0  0  0  0  0  0  0  0  0  0  0
    1.8234   -3.1443    0.2899 O   0  0  0  0  0  0  0  0  0  0  0  0
    1.6313   -2.0038   -1.9341 O   0  0  0  0  0  0  0  0  0  0  0  0
    4.2106   -1.5557   -1.3305 O   0  0  0  0  0  0  0  0  0  0  0  0
    5.6709    0.6046   -2.0132 O   0  0  0  0  0  0  0  0  0  0  0  0
   -4.4962   -1.7290    0.1477 O   0  0  0  0  0  0  0  0  0  0  0  0
    1.8905   -0.5488    0.2084 N   0  0  1  0  0  0  0  0  0  0  0  0
    0.1527    2.7715    0.1294 N   0  0  0  0  0  0  0  0  0  0  0  0
    4.8579    0.6106   -0.8719 N   0  0  0  0  0  0  0  0  0  0  0  0
    3.3063   -0.4521    0.6256 C   0  0  1  0  0  0  0  0  0  0  0  0
    1.3910    0.7219   -0.3814 C   0  0  0  0  0  0  0  0  0  0  0  0
    3.6756   -1.5225    1.6728 C   0  0  0  0  0  0  0  0  0  0  0  0
    0.6570    1.5184    0.6876 C   0  0  0  0  0  0  0  0  0  0  0  0
   -0.6323    3.5093    1.1287 C   0  0  0  0  0  0  0  0  0  0  0  0
    1.2583    3.6071   -0.3596 C   0  0  0  0  0  0  0  0  0  0  0  0
    4.1612   -0.5484   -0.6271 C   0  0  0  0  0  0  0  0  0  0  0  0
    2.8033   -1.4762    2.9321 C   0  0  0  0  0  0  0  0  0  0  0  0
    5.1548   -1.4345    2.0612 C   0  0  0  0  0  0  0  0  0  0  0  0
   -1.1375    4.8175    0.5270 C   0  0  0  0  0  0  0  0  0  0  0  0
    0.7091    4.9136   -0.9253 C   0  0  0  0  0  0  0  0  0  0  0  0
   -0.4012   -1.9368   -0.3118 C   0  0  0  0  0  0  0  0  0  0  0  0
   -1.2061   -1.9602   -1.4356 C   0  0  0  0  0  0  0  0  0  0  0  0
   -0.9313   -1.8455    0.9619 C   0  0  0  0  0  0  0  0  0  0  0  0
   -2.5906   -1.8895   -1.2803 C   0  0  0  0  0  0  0  0  0  0  0  0
   -2.3156   -1.7750    1.1173 C   0  0  0  0  0  0  0  0  0  0  0  0
   -3.1453   -1.7970   -0.0039 C   0  0  0  0  0  0  0  0  0  0  0  0
   -5.2377   -1.1154   -0.9055 C   0  0  0  0  0  0  0  0  0  0  0  0
   -6.4537   -0.5091   -0.3645 C   0  0  0  0  0  0  0  0  0  0  0  0
   -7.4527   -0.0106    0.0778 C   0  0  0  0  0  0  0  0  0  0  0  0
   -8.6692    0.5958    0.6165 C   0  0  0  0  0  0  0  0  0  0  0  0
    3.4591    0.5265    1.1011 H   0  0  0  0  0  0  0  0  0  0  0  0
    2.2350    1.2597   -0.8146 H   0  0  0  0  0  0  0  0  0  0  0  0
    0.7102    0.5150   -1.2152 H   0  0  0  0  0  0  0  0  0  0  0  0
    3.6151   -2.5252    1.2524 H   0  0  0  0  0  0  0  0  0  0  0  0
    1.3178    1.7045    1.5446 H   0  0  0  0  0  0  0  0  0  0  0  0
   -0.1832    0.9245    1.0641 H   0  0  0  0  0  0  0  0  0  0  0  0
   -1.4923    2.9126    1.4536 H   0  0  0  0  0  0  0  0  0  0  0  0
   -0.0165    3.7275    2.0109 H   0  0  0  0  0  0  0  0  0  0  0  0
    1.9639    3.8255    0.4524 H   0  0  0  0  0  0  0  0  0  0  0  0
    1.8074    3.1410   -1.1807 H   0  0  0  0  0  0  0  0  0  0  0  0
    2.8829   -0.5017    3.4256 H   0  0  0  0  0  0  0  0  0  0  0  0
    1.7517   -1.6535    2.7031 H   0  0  0  0  0  0  0  0  0  0  0  0
    3.1150   -2.2426    3.6498 H   0  0  0  0  0  0  0  0  0  0  0  0
    5.4064   -2.1896    2.8142 H   0  0  0  0  0  0  0  0  0  0  0  0
    5.3928   -0.4512    2.4812 H   0  0  0  0  0  0  0  0  0  0  0  0
    5.8111   -1.6051    1.2018 H   0  0  0  0  0  0  0  0  0  0  0  0
   -1.8320    4.6396   -0.3032 H   0  0  0  0  0  0  0  0  0  0  0  0
   -1.6719    5.3955    1.2876 H   0  0  0  0  0  0  0  0  0  0  0  0
    1.5346    5.5634   -1.2335 H   0  0  0  0  0  0  0  0  0  0  0  0
    0.0773    4.7407   -1.8052 H   0  0  0  0  0  0  0  0  0  0  0  0
    4.9041    1.4284   -0.2745 H   0  0  0  0  0  0  0  0  0  0  0  0
   -0.7999   -2.0393   -2.4386 H   0  0  0  0  0  0  0  0  0  0  0  0
   -0.3013   -1.8307    1.8435 H   0  0  0  0  0  0  0  0  0  0  0  0
   -3.2011   -1.9380   -2.1771 H   0  0  0  0  0  0  0  0  0  0  0  0
   -2.7421   -1.7034    2.1142 H   0  0  0  0  0  0  0  0  0  0  0  0
    6.4313    1.1155   -1.6881 H   0  0  0  0  0  0  0  0  0  0  0  0
   -5.4999   -1.8779   -1.6475 H   0  0  0  0  0  0  0  0  0  0  0  0
   -4.6619   -0.3192   -1.3949 H   0  0  0  0  0  0  0  0  0  0  0  0
   -9.2002   -0.1074    1.2653 H   0  0  0  0  0  0  0  0  0  0  0  0
   -8.4321    1.4874    1.2047 H   0  0  0  0  0  0  0  0  0  0  0  0
   -9.3468    0.8915   -0.1900 H   0  0  0  0  0  0  0  0  0  0  0  0
  1  3  2  0  0  0  0
  1  4  2  0  0  0  0
  1  8  1  0  0  0  0
  1 22  1  0  0  0  0
  2 20  1  0  0  0  0
  2 21  1  0  0  0  0
  5 17  2  0  0  0  0
  6 10  1  0  0  0  0
  6 57  1  0  0  0  0
  7 27  1  0  0  0  0
  7 28  1  0  0  0  0
  8 11  1  0  0  0  0
  8 12  1  0  0  0  0
  9 14  1  0  0  0  0
  9 15  1  0  0  0  0
  9 16  1  0  0  0  0
 10 17  1  0  0  0  0
 10 52  1  0  0  0  0
 11 13  1  0  0  0  0
 11 17  1  0  0  0  0
 11 32  1  0  0  0  0
 12 14  1  0  0  0  0
 12 33  1  0  0  0  0
 12 34  1  0  0  0  0
 13 18  1  0  0  0  0
 13 19  1  0  0  0  0
 13 35  1  0  0  0  0
 14 36  1  0  0  0  0
 14 37  1  0  0  0  0
 15 20  1  0  0  0  0
 15 38  1  0  0  0  0
 15 39  1  0  0  0  0
 16 21  1  0  0  0  0
 16 40  1  0  0  0  0
 16 41  1  0  0  0  0
 18 42  1  0  0  0  0
 18 43  1  0  0  0  0
 18 44  1  0  0  0  0
 19 45  1  0  0  0  0
 19 46  1  0  0  0  0
 19 47  1  0  0  0  0
 20 48  1  0  0  0  0
 20 49  1  0  0  0  0
 21 50  1  0  0  0  0
 21 51  1  0  0  0  0
 22 23  2  0  0  0  0
 22 24  1  0  0  0  0
 23 25  1  0  0  0  0
 23 53  1  0  0  0  0
 24 26  2  0  0  0  0
 24 54  1  0  0  0  0
 25 27  2  0  0  0  0
 25 55  1  0  0  0  0
 26 27  1  0  0  0  0
 26 56  1  0  0  0  0
 28 29  1  0  0  0  0
 28 58  1  0  0  0  0
 28 59  1  0  0  0  0
 29 30  3  0  0  0  0
 30 31  1  0  0  0  0
 31 60  1  0  0  0  0
 31 61  1  0  0  0  0
 31 62  1  0  0  0  0
M  END
> <PUBCHEM_COMPOUND_CID>
10115050

> <PUBCHEM_CONFORMER_RMSD>
1.2

> <PUBCHEM_CONFORMER_DIVERSEORDER>
1
22
158
24
59
85
47
160
143
165
92
119
100
125
177
19
107
37
161
58
155
172
109
127
67
141
46
14
128
176
124
169
49
126
112
13
173
135
188
156
145
186
81
90
56
115
117
54
184
163
80
21
62
164
93
122
30
79
131
104
144
39
41
162
166
108
66
35
171
147
60
74
167
57
111
170
27
142
133
17
20
102
151
123
98
51
88
113
181
15
180
168
9
120
52
95
175
187
8
68
185
40
129
138
43
139
48
84
16
178
150
148
182
153
103
78
76
137
105
23
82
42
94
10
69
73
157
25
70
149
91
6
44
7
134
33
174
136
32
130
83
5
65
38
29
132
61
45
87
114
36
110
97
118
53
50
179
154
116
146
11
34
183
106
28
55
75
26
89
64
121
72
18
31
140
86
152
3
71
12
77
4
159
101
63
99
2
96

> <PUBCHEM_MMFF94_PARTIAL_CHARGES>
34
1 1.45
10 -0.39
11 0.42
12 0.36
14 0.27
15 0.27
16 0.27
17 0.57
2 -0.56
20 0.28
21 0.28
22 -0.01
23 -0.15
24 -0.15
25 -0.15
26 -0.15
27 0.08
28 0.48
29 -0.2
3 -0.65
30 -0.2
31 0.2
4 -0.65
5 -0.57
52 0.37
53 0.15
54 0.15
55 0.15
56 0.15
57 0.4
6 -0.44
7 -0.36
8 -0.85
9 -0.81

> <PUBCHEM_EFFECTIVE_ROTOR_COUNT>
12.2

> <PUBCHEM_PHARMACOPHORE_FEATURES>
11
1 10 donor
1 2 acceptor
1 3 acceptor
1 31 hydrophobe
1 4 acceptor
1 5 acceptor
1 7 acceptor
1 9 cation
3 13 18 19 hydrophobe
6 2 9 15 16 20 21 rings
6 22 23 24 25 26 27 rings

> <PUBCHEM_HEAVY_ATOM_COUNT>
31

> <PUBCHEM_ATOM_DEF_STEREO_COUNT>
0

> <PUBCHEM_ATOM_UDEF_STEREO_COUNT>
1

> <PUBCHEM_BOND_DEF_STEREO_COUNT>
0

> <PUBCHEM_BOND_UDEF_STEREO_COUNT>
0

> <PUBCHEM_ISOTOPIC_ATOM_COUNT>
0

> <PUBCHEM_COMPONENT_COUNT>
1

> <PUBCHEM_CACTVS_TAUTO_COUNT>
3

> <PUBCHEM_CONFORMER_ID>
009A57EA00000001

> <PUBCHEM_MMFF94_ENERGY>
72.3718

> <PUBCHEM_FEATURE_SELFOVERLAP>
55.848

> <PUBCHEM_SHAPE_FINGERPRINT>
10006869 2 18338789109522582856
10675989 125 18118971527561763236
12293681 160 17969231204196570448
12788726 201 18408042888368410386
13560911 43 18408324385442930801
14028597 1 17750784459410043690
14400156 260 18409453600189066352
14849402 71 18335988657854449053
15198563 99 18268170715802163564
15210252 30 18337391646943468356
15238133 3 18334286574182302259
15439362 3 17980202203284202964
16087824 20 18412550882006489069
19301679 30 18192137201650312714
19302320 297 18411709773402818921
21285901 2 17917442977556076398
21860390 5 18272091647322596983
23558518 356 17903071132178361226
24771293 8 18058431270325901544
345986 75 17679552611394603330
3552219 110 17967524641817201312
6086070 43 18118932942065543423
653340 110 18053939550710271945
9777508 108 17691959371663334456

> <PUBCHEM_SHAPE_MULTIPOLES>
591.66
13.93
5.92
1.79
29.43
13.17
-0.5
-5.3
-0.85
-0.95
0.04
-2.49
-0.97
-1.83

> <PUBCHEM_SHAPE_SELFOVERLAP>
1189.838

> <PUBCHEM_SHAPE_VOLUME>
347.1

> <PUBCHEM_COORDINATE_TYPE>
2
5
10

$$$$
