442538
  -OEChem-02172602293D

 47 48  0     1  0  0  0  0  0999 V2000
    1.9734   -0.7281   -0.1087 O   0  0  0  0  0  0  0  0  0  0  0  0
    0.7949    1.2856   -0.1212 O   0  0  0  0  0  0  0  0  0  0  0  0
    5.2308    1.0395    1.6609 O   0  0  0  0  0  0  0  0  0  0  0  0
    5.5163   -1.5274    0.3625 O   0  0  0  0  0  0  0  0  0  0  0  0
    3.2245    2.6843    0.2646 O   0  0  0  0  0  0  0  0  0  0  0  0
    1.9629   -3.2853   -1.1171 O   0  0  0  0  0  0  0  0  0  0  0  0
   -7.4127   -0.4210    0.8199 O   0  0  0  0  0  0  0  0  0  0  0  0
    4.4236    0.6116    0.5629 C   0  0  1  0  0  0  0  0  0  0  0  0
    4.2671   -0.9065    0.6544 C   0  0  1  0  0  0  0  0  0  0  0  0
    3.0663    1.3124    0.6254 C   0  0  2  0  0  0  0  0  0  0  0  0
    3.2113   -1.4043   -0.3355 C   0  0  1  0  0  0  0  0  0  0  0  0
    2.0666    0.6756   -0.3398 C   0  0  1  0  0  0  0  0  0  0  0  0
    2.9534   -2.8999   -0.1815 C   0  0  0  0  0  0  0  0  0  0  0  0
    0.0191    1.3008   -1.3093 C   0  0  1  0  0  0  0  0  0  0  0  0
   -1.4686    1.2355   -0.9417 C   0  0  0  0  0  0  0  0  0  0  0  0
   -1.8818   -0.0639   -0.2354 C   0  0  0  0  0  0  0  0  0  0  0  0
    0.3358    2.5714   -2.0878 C   0  0  0  0  0  0  0  0  0  0  0  0
   -3.3602   -0.1592    0.0465 C   0  0  0  0  0  0  0  0  0  0  0  0
   -3.8569    0.3264    1.2463 C   0  0  0  0  0  0  0  0  0  0  0  0
   -4.1978   -0.7311   -0.8991 C   0  0  0  0  0  0  0  0  0  0  0  0
   -5.2242    0.2380    1.5071 C   0  0  0  0  0  0  0  0  0  0  0  0
   -5.5652   -0.8195   -0.6383 C   0  0  0  0  0  0  0  0  0  0  0  0
   -6.0785   -0.3348    0.5649 C   0  0  0  0  0  0  0  0  0  0  0  0
    4.9611    0.9005   -0.3487 H   0  0  0  0  0  0  0  0  0  0  0  0
    3.9950   -1.1836    1.6802 H   0  0  0  0  0  0  0  0  0  0  0  0
    2.6822    1.2926    1.6529 H   0  0  0  0  0  0  0  0  0  0  0  0
    3.5244   -1.2199   -1.3723 H   0  0  0  0  0  0  0  0  0  0  0  0
    2.4028    0.8540   -1.3705 H   0  0  0  0  0  0  0  0  0  0  0  0
    2.5796   -3.1412    0.8191 H   0  0  0  0  0  0  0  0  0  0  0  0
    3.8554   -3.4882   -0.3724 H   0  0  0  0  0  0  0  0  0  0  0  0
    0.2460    0.4262   -1.9341 H   0  0  0  0  0  0  0  0  0  0  0  0
   -1.7168    2.0799   -0.2848 H   0  0  0  0  0  0  0  0  0  0  0  0
   -2.0699    1.3556   -1.8521 H   0  0  0  0  0  0  0  0  0  0  0  0
    6.0792    0.5680    1.5994 H   0  0  0  0  0  0  0  0  0  0  0  0
    5.7630   -1.2922   -0.5482 H   0  0  0  0  0  0  0  0  0  0  0  0
    2.3451    3.0983    0.3014 H   0  0  0  0  0  0  0  0  0  0  0  0
   -1.3278   -0.1673    0.7067 H   0  0  0  0  0  0  0  0  0  0  0  0
   -1.5768   -0.9245   -0.8455 H   0  0  0  0  0  0  0  0  0  0  0  0
    0.1434    3.4602   -1.4765 H   0  0  0  0  0  0  0  0  0  0  0  0
    1.3911    2.6133   -2.3748 H   0  0  0  0  0  0  0  0  0  0  0  0
   -0.2671    2.6380   -2.9988 H   0  0  0  0  0  0  0  0  0  0  0  0
    1.1685   -2.7526   -0.9410 H   0  0  0  0  0  0  0  0  0  0  0  0
   -3.1997    0.7760    1.9851 H   0  0  0  0  0  0  0  0  0  0  0  0
   -3.8077   -1.1093   -1.8396 H   0  0  0  0  0  0  0  0  0  0  0  0
   -5.6116    0.6196    2.4481 H   0  0  0  0  0  0  0  0  0  0  0  0
   -6.2257   -1.2664   -1.3764 H   0  0  0  0  0  0  0  0  0  0  0  0
   -7.5914   -0.0383    1.6961 H   0  0  0  0  0  0  0  0  0  0  0  0
  1 11  1  0  0  0  0
  1 12  1  0  0  0  0
  2 12  1  0  0  0  0
  2 14  1  0  0  0  0
  3  8  1  0  0  0  0
  3 34  1  0  0  0  0
  4  9  1  0  0  0  0
  4 35  1  0  0  0  0
  5 10  1  0  0  0  0
  5 36  1  0  0  0  0
  6 13  1  0  0  0  0
  6 42  1  0  0  0  0
  7 23  1  0  0  0  0
  7 47  1  0  0  0  0
  8  9  1  0  0  0  0
  8 10  1  0  0  0  0
  8 24  1  0  0  0  0
  9 11  1  0  0  0  0
  9 25  1  0  0  0  0
 10 12  1  0  0  0  0
 10 26  1  0  0  0  0
 11 13  1  0  0  0  0
 11 27  1  0  0  0  0
 12 28  1  0  0  0  0
 13 29  1  0  0  0  0
 13 30  1  0  0  0  0
 14 15  1  0  0  0  0
 14 17  1  0  0  0  0
 14 31  1  0  0  0  0
 15 16  1  0  0  0  0
 15 32  1  0  0  0  0
 15 33  1  0  0  0  0
 16 18  1  0  0  0  0
 16 37  1  0  0  0  0
 16 38  1  0  0  0  0
 17 39  1  0  0  0  0
 17 40  1  0  0  0  0
 17 41  1  0  0  0  0
 18 19  2  0  0  0  0
 18 20  1  0  0  0  0
 19 21  1  0  0  0  0
 19 43  1  0  0  0  0
 20 22  2  0  0  0  0
 20 44  1  0  0  0  0
 21 23  2  0  0  0  0
 21 45  1  0  0  0  0
 22 23  1  0  0  0  0
 22 46  1  0  0  0  0
M  END
> <PUBCHEM_COMPOUND_CID>
442538

> <PUBCHEM_CONFORMER_RMSD>
0.8

> <PUBCHEM_CONFORMER_DIVERSEORDER>
1
132
81
43
58
100
124
164
84
174
171
156
128
82
113
57
173
98
56
148
29
32
91
139
6
175
19
111
153
54
48
168
34
110
106
176
108
76
35
154
40
144
102
7
157
123
103
72
120
94
33
4
135
23
25
28
116
88
99
11
5
158
78
83
136
46
90
20
145
27
18
147
142
177
37
134
137
24
117
55
17
89
67
3
73
62
13
152
162
80
60
79
161
10
131
95
109
64
30
92
180
15
75
115
66
93
8
61
41
51
150
155
167
119
181
133
71
59
45
179
165
112
127
138
36
125
85
170
96
130
87
121
31
166
9
86
68
70
12
105
42
143
22
114
44
122
52
47
172
77
74
178
65
129
118
160
101
16
149
126
107
97
151
104
38
140
26
163
39
2
69
53
169
50
21
159
146
63
141
49
14

> <PUBCHEM_MMFF94_PARTIAL_CHARGES>
30
1 -0.56
10 0.28
11 0.28
12 0.56
13 0.28
14 0.28
16 0.14
18 -0.14
19 -0.15
2 -0.56
20 -0.15
21 -0.15
22 -0.15
23 0.08
3 -0.68
34 0.4
35 0.4
36 0.4
4 -0.68
42 0.4
43 0.15
44 0.15
45 0.15
46 0.15
47 0.45
5 -0.68
6 -0.68
7 -0.53
8 0.28
9 0.28

> <PUBCHEM_EFFECTIVE_ROTOR_COUNT>
7.2

> <PUBCHEM_PHARMACOPHORE_FEATURES>
13
1 1 acceptor
1 2 acceptor
1 3 acceptor
1 3 donor
1 4 acceptor
1 4 donor
1 5 acceptor
1 5 donor
1 6 acceptor
1 6 donor
1 7 donor
6 1 8 9 10 11 12 rings
6 18 19 20 21 22 23 rings

> <PUBCHEM_HEAVY_ATOM_COUNT>
23

> <PUBCHEM_ATOM_DEF_STEREO_COUNT>
6

> <PUBCHEM_ATOM_UDEF_STEREO_COUNT>
0

> <PUBCHEM_BOND_DEF_STEREO_COUNT>
0

> <PUBCHEM_BOND_UDEF_STEREO_COUNT>
0

> <PUBCHEM_ISOTOPIC_ATOM_COUNT>
0

> <PUBCHEM_COMPONENT_COUNT>
1

> <PUBCHEM_CACTVS_TAUTO_COUNT>
2

> <PUBCHEM_CONFORMER_ID>
0006C0AA00000001

> <PUBCHEM_MMFF94_ENERGY>
58.6012

> <PUBCHEM_FEATURE_SELFOVERLAP>
66.035

> <PUBCHEM_SHAPE_FINGERPRINT>
10076449 9 18338803313406984322
10670039 82 13182756852413464018
114674 6 18261959548493631090
12107183 9 17554624893793023635
12236239 1 17775564256281503959
12363563 72 17385730179212296109
12516196 113 18040434404026129741
12596602 18 17203606016667638475
12633257 1 18272366473157468742
12778500 126 17775012241277759265
12892183 10 18201721704453879025
13402501 40 18187365415394833346
13533116 47 18343868818645604443
13544653 18 18335138691683581165
13583140 156 17488726914075788025
13685833 64 17749112205872713569
13914758 101 18410289191415611221
14252887 29 18260829297562676068
14341114 176 18202283593407732704
14341114 328 17489870448854058307
14386348 63 17748545939782650467
14840074 17 18410572911425686022
14849402 71 17916857054318786056
14863182 85 18408047316606624886
15142526 21 17413294012445435144
15183329 4 16009025065236821557
1813 80 17967823716953044245
193927 3 17530688701502403533
1979834 28 18409732880415661926
20397935 70 18412272735476075215
20403669 9 17894348869569572651
20511986 3 17917698107419358671
20645477 70 18261106391725382117
21197605 99 18194967563523247707
21315764 119 14201663227133574587
21623969 137 18334297573930936627
22224240 67 18270953657130405408
23424782 7 10519690212660825717
239999 70 17603867836155504504
3004659 81 16370447752162748974
314173 85 17967531264013739261
345986 75 18128811954475810099
3633792 109 18341039737147520799
4340502 62 18060698420484694642
465052 167 17894624864505747360
5104073 3 18266728104995902816
5758199 1 18130500951056220576
7808743 9 13469820676919249088
8863177 126 16227192464475432705
9971528 1 18187648033107118861

> <PUBCHEM_SHAPE_MULTIPOLES>
432.24
15.29
2.59
1.4
16.83
0.65
-0.07
4.79
6.47
-4.03
-1.2
0.35
-0.51
0.67

> <PUBCHEM_SHAPE_SELFOVERLAP>
888.318

> <PUBCHEM_SHAPE_VOLUME>
246.9

> <PUBCHEM_COORDINATE_TYPE>
2
5
10

$$$$
