10091881
  -OEChem-02172602533D

 49 50  0     0  0  0  0  0  0999 V2000
   -6.1275    1.4072   -1.2979 Cl  0  0  0  0  0  0  0  0  0  0  0  0
    1.5041   -1.6544   -1.8341 O   0  0  0  0  0  0  0  0  0  0  0  0
    3.1573   -2.8745    0.0375 O   0  0  0  0  0  0  0  0  0  0  0  0
    0.5750    2.3352    2.1604 O   0  0  0  0  0  0  0  0  0  0  0  0
   -1.7451   -2.2022    2.2544 O   0  0  0  0  0  0  0  0  0  0  0  0
    1.0062    3.0876    0.0040 N   0  0  0  0  0  0  0  0  0  0  0  0
   -1.4516    0.8251    0.6524 N   0  0  0  0  0  0  0  0  0  0  0  0
   -0.9073   -2.5781    0.1531 N   0  0  0  0  0  0  0  0  0  0  0  0
    3.3511    2.7351   -0.6959 C   0  0  0  0  0  0  0  0  0  0  0  0
    2.3796    3.4878    0.2099 C   0  0  0  0  0  0  0  0  0  0  0  0
    3.2975    1.2395   -0.5028 C   0  0  0  0  0  0  0  0  0  0  0  0
    2.4182    0.4695   -1.2642 C   0  0  0  0  0  0  0  0  0  0  0  0
    4.1264    0.6271    0.4370 C   0  0  0  0  0  0  0  0  0  0  0  0
   -1.1778    2.2313    0.5001 C   0  0  0  0  0  0  0  0  0  0  0  0
    0.2146    2.5412    1.0044 C   0  0  0  0  0  0  0  0  0  0  0  0
    2.3682   -0.9130   -1.0858 C   0  0  0  0  0  0  0  0  0  0  0  0
    3.1970   -1.5254   -0.1459 C   0  0  0  0  0  0  0  0  0  0  0  0
    4.0762   -0.7554    0.6155 C   0  0  0  0  0  0  0  0  0  0  0  0
   -2.6504    0.2281    0.2902 C   0  0  0  0  0  0  0  0  0  0  0  0
   -2.8499   -1.1412    0.4653 C   0  0  0  0  0  0  0  0  0  0  0  0
   -3.6638    1.0164   -0.2551 C   0  0  0  0  0  0  0  0  0  0  0  0
   -4.0627   -1.7224    0.0951 C   0  0  0  0  0  0  0  0  0  0  0  0
   -4.8766    0.4353   -0.6252 C   0  0  0  0  0  0  0  0  0  0  0  0
   -5.0760   -0.9341   -0.4501 C   0  0  0  0  0  0  0  0  0  0  0  0
   -1.8115   -1.9924    1.0321 C   0  0  0  0  0  0  0  0  0  0  0  0
    0.6918   -0.9519   -2.7724 C   0  0  0  0  0  0  0  0  0  0  0  0
    4.0370   -3.4217    1.0179 C   0  0  0  0  0  0  0  0  0  0  0  0
    4.3724    3.0932   -0.5149 H   0  0  0  0  0  0  0  0  0  0  0  0
    3.1365    2.9695   -1.7469 H   0  0  0  0  0  0  0  0  0  0  0  0
    2.4338    4.5602   -0.0061 H   0  0  0  0  0  0  0  0  0  0  0  0
    2.6531    3.3476    1.2615 H   0  0  0  0  0  0  0  0  0  0  0  0
    0.6107    3.2570   -0.9158 H   0  0  0  0  0  0  0  0  0  0  0  0
    1.7993    0.9990   -1.9807 H   0  0  0  0  0  0  0  0  0  0  0  0
    4.8134    1.2181    1.0371 H   0  0  0  0  0  0  0  0  0  0  0  0
   -1.2822    2.5297   -0.5490 H   0  0  0  0  0  0  0  0  0  0  0  0
   -1.8704    2.8342    1.0995 H   0  0  0  0  0  0  0  0  0  0  0  0
    4.7481   -1.1619    1.3634 H   0  0  0  0  0  0  0  0  0  0  0  0
   -0.7205    0.2352    1.0337 H   0  0  0  0  0  0  0  0  0  0  0  0
   -3.5416    2.0859   -0.4029 H   0  0  0  0  0  0  0  0  0  0  0  0
   -4.2305   -2.7883    0.2266 H   0  0  0  0  0  0  0  0  0  0  0  0
   -6.0159   -1.4005   -0.7341 H   0  0  0  0  0  0  0  0  0  0  0  0
    0.0664   -1.6957   -3.2769 H   0  0  0  0  0  0  0  0  0  0  0  0
    1.2960   -0.4671   -3.5467 H   0  0  0  0  0  0  0  0  0  0  0  0
    0.0118   -0.2525   -2.2737 H   0  0  0  0  0  0  0  0  0  0  0  0
    3.8719   -4.5041    1.0304 H   0  0  0  0  0  0  0  0  0  0  0  0
    3.8014   -3.0529    2.0220 H   0  0  0  0  0  0  0  0  0  0  0  0
    5.0874   -3.2634    0.7511 H   0  0  0  0  0  0  0  0  0  0  0  0
   -0.1656   -3.1817    0.4918 H   0  0  0  0  0  0  0  0  0  0  0  0
   -0.9540   -2.4251   -0.8492 H   0  0  0  0  0  0  0  0  0  0  0  0
  1 23  1  0  0  0  0
  2 16  1  0  0  0  0
  2 26  1  0  0  0  0
  3 17  1  0  0  0  0
  3 27  1  0  0  0  0
  4 15  2  0  0  0  0
  5 25  2  0  0  0  0
  6 10  1  0  0  0  0
  6 15  1  0  0  0  0
  6 32  1  0  0  0  0
  7 14  1  0  0  0  0
  7 19  1  0  0  0  0
  7 38  1  0  0  0  0
  8 25  1  0  0  0  0
  8 48  1  0  0  0  0
  8 49  1  0  0  0  0
  9 10  1  0  0  0  0
  9 11  1  0  0  0  0
  9 28  1  0  0  0  0
  9 29  1  0  0  0  0
 10 30  1  0  0  0  0
 10 31  1  0  0  0  0
 11 12  2  0  0  0  0
 11 13  1  0  0  0  0
 12 16  1  0  0  0  0
 12 33  1  0  0  0  0
 13 18  2  0  0  0  0
 13 34  1  0  0  0  0
 14 15  1  0  0  0  0
 14 35  1  0  0  0  0
 14 36  1  0  0  0  0
 16 17  2  0  0  0  0
 17 18  1  0  0  0  0
 18 37  1  0  0  0  0
 19 20  2  0  0  0  0
 19 21  1  0  0  0  0
 20 22  1  0  0  0  0
 20 25  1  0  0  0  0
 21 23  2  0  0  0  0
 21 39  1  0  0  0  0
 22 24  2  0  0  0  0
 22 40  1  0  0  0  0
 23 24  1  0  0  0  0
 24 41  1  0  0  0  0
 26 42  1  0  0  0  0
 26 43  1  0  0  0  0
 26 44  1  0  0  0  0
 27 45  1  0  0  0  0
 27 46  1  0  0  0  0
 27 47  1  0  0  0  0
M  END
> <PUBCHEM_COMPOUND_CID>
10091881

> <PUBCHEM_CONFORMER_RMSD>
1.2

> <PUBCHEM_CONFORMER_DIVERSEORDER>
2
21
154
68
18
64
58
132
48
111
11
45
53
128
49
86
42
26
78
60
39
71
75
118
143
33
137
103
69
134
107
50
116
119
83
20
123
150
142
66
10
136
117
148
44
152
22
96
73
139
32
98
102
61
89
43
155
16
65
76
151
6
72
146
122
15
94
52
125
131
141
40
144
93
105
130
156
9
47
81
30
100
46
153
67
114
54
99
59
82
41
108
97
24
57
129
135
62
35
115
19
112
126
31
17
91
124
38
120
92
34
70
84
1
149
56
63
147
36
29
109
3
88
28
27
8
79
157
37
55
95
140
87
80
104
74
121
133
106
101
23
85
110
25
13
12
138
90
51
127
145
7
113
77
5
14
4

> <PUBCHEM_MMFF94_PARTIAL_CHARGES>
37
1 -0.18
10 0.3
11 -0.14
12 -0.15
13 -0.15
14 0.43
15 0.57
16 0.08
17 0.08
18 -0.15
19 0.1
2 -0.36
20 0.09
21 -0.15
22 -0.15
23 0.18
24 -0.15
25 0.54
26 0.28
27 0.28
3 -0.36
32 0.37
33 0.15
34 0.15
37 0.15
38 0.4
39 0.15
4 -0.57
40 0.15
41 0.15
48 0.37
49 0.37
5 -0.57
6 -0.73
7 -0.87
8 -0.8
9 0.14

> <PUBCHEM_EFFECTIVE_ROTOR_COUNT>
10

> <PUBCHEM_PHARMACOPHORE_FEATURES>
10
1 2 acceptor
1 3 acceptor
1 4 acceptor
1 5 acceptor
1 6 donor
1 7 cation
1 7 donor
1 8 donor
6 11 12 13 16 17 18 rings
6 19 20 21 22 23 24 rings

> <PUBCHEM_HEAVY_ATOM_COUNT>
27

> <PUBCHEM_ATOM_DEF_STEREO_COUNT>
0

> <PUBCHEM_ATOM_UDEF_STEREO_COUNT>
0

> <PUBCHEM_BOND_DEF_STEREO_COUNT>
0

> <PUBCHEM_BOND_UDEF_STEREO_COUNT>
0

> <PUBCHEM_ISOTOPIC_ATOM_COUNT>
0

> <PUBCHEM_COMPONENT_COUNT>
1

> <PUBCHEM_CACTVS_TAUTO_COUNT>
10

> <PUBCHEM_CONFORMER_ID>
0099FD6900000002

> <PUBCHEM_MMFF94_ENERGY>
95.5572

> <PUBCHEM_FEATURE_SELFOVERLAP>
50.751

> <PUBCHEM_SHAPE_FINGERPRINT>
11370993 70 18113899419838803710
11828532 37 17821728373635559101
12156800 1 16812040041808258456
12166972 35 18041003877845151695
12553582 1 18198085662313431336
12633257 1 18268443329722543724
12788726 201 18129393630476644329
13402501 40 18339361967374816325
13583140 156 18263934391488247799
14068700 675 18120927318318422770
14117953 113 17987799588398011615
14251757 17 18334577979645212313
14251764 38 18411984646117834117
15183329 4 18060140921573369885
15635459 17 18200046168759812308
192875 21 18268148664917253798
20645477 70 18058459866218677797
20715895 44 18263640672113333253
21315764 371 15051722101990498927
23559900 14 18410571777569916026
27425 322 16878503582872661677
3004659 81 18260544515730153496
3298306 158 18198339765642782573
3680242 22 18338807693471266723
460360 51 18335437754857356793
6433294 58 18338237175463787616

> <PUBCHEM_SHAPE_MULTIPOLES>
519.1
10.68
4.17
1.69
10.27
0.59
0.44
-1.13
1.94
-3.75
-1.29
-0.19
-0.4
0.47

> <PUBCHEM_SHAPE_SELFOVERLAP>
1081.031

> <PUBCHEM_SHAPE_VOLUME>
296

> <PUBCHEM_COORDINATE_TYPE>
2
5
10

$$$$
