11449446
  -OEChem-02172602313D

 53 52  0     1  0  0  0  0  0999 V2000
   -4.9818    2.7367    0.3592 O   0  0  0  0  0  0  0  0  0  0  0  0
   -4.1644    1.7145   -1.5021 O   0  0  0  0  0  0  0  0  0  0  0  0
   -6.3719   -0.7740   -1.6725 O   0  0  0  0  0  0  0  0  0  0  0  0
   -5.4295   -2.4868   -0.5247 O   0  0  0  0  0  0  0  0  0  0  0  0
   -3.0672   -0.3124    0.2214 C   0  0  0  0  0  0  0  0  0  0  0  0
   -1.7768    0.4718    0.4686 C   0  0  0  0  0  0  0  0  0  0  0  0
   -4.3498    0.4616    0.5884 C   0  0  2  0  0  0  0  0  0  0  0  0
   -0.5424   -0.3937    0.1986 C   0  0  0  0  0  0  0  0  0  0  0  0
    0.7474    0.4005    0.4145 C   0  0  0  0  0  0  0  0  0  0  0  0
    2.0167   -0.4070    0.1267 C   0  0  0  0  0  0  0  0  0  0  0  0
    3.3406    0.3431    0.3033 C   0  0  0  0  0  0  0  0  0  0  0  0
   -5.6856   -0.3218    0.5752 C   0  0  2  0  0  0  0  0  0  0  0  0
    4.5692   -0.4965   -0.0520 C   0  0  0  0  0  0  0  0  0  0  0  0
    5.8611    0.2987    0.1508 C   0  0  0  0  0  0  0  0  0  0  0  0
    7.0897   -0.5267   -0.2386 C   0  0  0  0  0  0  0  0  0  0  0  0
    8.3816    0.2590   -0.0036 C   0  0  0  0  0  0  0  0  0  0  0  0
   -4.4810    1.6740   -0.3217 C   0  0  0  0  0  0  0  0  0  0  0  0
   -5.9288   -1.0203    1.9180 C   0  0  0  0  0  0  0  0  0  0  0  0
   -5.8032   -1.3219   -0.5672 C   0  0  0  0  0  0  0  0  0  0  0  0
    9.6442   -0.5331   -0.3492 C   0  0  0  0  0  0  0  0  0  0  0  0
   10.9320    0.2344   -0.0931 C   0  0  0  0  0  0  0  0  0  0  0  0
   -3.0360   -1.2326    0.8183 H   0  0  0  0  0  0  0  0  0  0  0  0
   -3.0985   -0.6219   -0.8309 H   0  0  0  0  0  0  0  0  0  0  0  0
   -1.7534    0.8230    1.5073 H   0  0  0  0  0  0  0  0  0  0  0  0
   -1.7455    1.3594   -0.1732 H   0  0  0  0  0  0  0  0  0  0  0  0
   -4.1956    0.8591    1.6022 H   0  0  0  0  0  0  0  0  0  0  0  0
   -0.5498   -1.2681    0.8604 H   0  0  0  0  0  0  0  0  0  0  0  0
   -0.5733   -0.7666   -0.8323 H   0  0  0  0  0  0  0  0  0  0  0  0
    0.7828    0.7629    1.4493 H   0  0  0  0  0  0  0  0  0  0  0  0
    0.7392    1.2875   -0.2309 H   0  0  0  0  0  0  0  0  0  0  0  0
    2.0255   -1.2916    0.7762 H   0  0  0  0  0  0  0  0  0  0  0  0
    1.9637   -0.7819   -0.9035 H   0  0  0  0  0  0  0  0  0  0  0  0
    3.4192    0.6837    1.3431 H   0  0  0  0  0  0  0  0  0  0  0  0
    3.3246    1.2431   -0.3237 H   0  0  0  0  0  0  0  0  0  0  0  0
   -6.5213    0.3829    0.4586 H   0  0  0  0  0  0  0  0  0  0  0  0
    4.4974   -0.8246   -1.0959 H   0  0  0  0  0  0  0  0  0  0  0  0
    4.5896   -1.3990    0.5706 H   0  0  0  0  0  0  0  0  0  0  0  0
    5.9403    0.6058    1.2008 H   0  0  0  0  0  0  0  0  0  0  0  0
    5.8294    1.2140   -0.4527 H   0  0  0  0  0  0  0  0  0  0  0  0
    7.0227   -0.8157   -1.2943 H   0  0  0  0  0  0  0  0  0  0  0  0
    7.1131   -1.4518    0.3499 H   0  0  0  0  0  0  0  0  0  0  0  0
    8.3603    1.1790   -0.6010 H   0  0  0  0  0  0  0  0  0  0  0  0
    8.4310    0.5663    1.0485 H   0  0  0  0  0  0  0  0  0  0  0  0
   -5.1300   -1.7340    2.1464 H   0  0  0  0  0  0  0  0  0  0  0  0
   -5.9804   -0.2921    2.7340 H   0  0  0  0  0  0  0  0  0  0  0  0
   -6.8725   -1.5766    1.9011 H   0  0  0  0  0  0  0  0  0  0  0  0
    9.6635   -1.4594    0.2374 H   0  0  0  0  0  0  0  0  0  0  0  0
    9.6104   -0.8267   -1.4052 H   0  0  0  0  0  0  0  0  0  0  0  0
   10.9655    1.1503   -0.6915 H   0  0  0  0  0  0  0  0  0  0  0  0
   11.7994   -0.3782   -0.3579 H   0  0  0  0  0  0  0  0  0  0  0  0
   11.0183    0.5104    0.9626 H   0  0  0  0  0  0  0  0  0  0  0  0
   -5.0629    3.5308   -0.2110 H   0  0  0  0  0  0  0  0  0  0  0  0
   -6.4404   -1.4208   -2.4068 H   0  0  0  0  0  0  0  0  0  0  0  0
  1 17  1  0  0  0  0
  1 52  1  0  0  0  0
  2 17  2  0  0  0  0
  3 19  1  0  0  0  0
  3 53  1  0  0  0  0
  4 19  2  0  0  0  0
  5  6  1  0  0  0  0
  5  7  1  0  0  0  0
  5 22  1  0  0  0  0
  5 23  1  0  0  0  0
  6  8  1  0  0  0  0
  6 24  1  0  0  0  0
  6 25  1  0  0  0  0
  7 12  1  0  0  0  0
  7 17  1  0  0  0  0
  7 26  1  0  0  0  0
  8  9  1  0  0  0  0
  8 27  1  0  0  0  0
  8 28  1  0  0  0  0
  9 10  1  0  0  0  0
  9 29  1  0  0  0  0
  9 30  1  0  0  0  0
 10 11  1  0  0  0  0
 10 31  1  0  0  0  0
 10 32  1  0  0  0  0
 11 13  1  0  0  0  0
 11 33  1  0  0  0  0
 11 34  1  0  0  0  0
 12 18  1  0  0  0  0
 12 19  1  0  0  0  0
 12 35  1  0  0  0  0
 13 14  1  0  0  0  0
 13 36  1  0  0  0  0
 13 37  1  0  0  0  0
 14 15  1  0  0  0  0
 14 38  1  0  0  0  0
 14 39  1  0  0  0  0
 15 16  1  0  0  0  0
 15 40  1  0  0  0  0
 15 41  1  0  0  0  0
 16 20  1  0  0  0  0
 16 42  1  0  0  0  0
 16 43  1  0  0  0  0
 18 44  1  0  0  0  0
 18 45  1  0  0  0  0
 18 46  1  0  0  0  0
 20 21  1  0  0  0  0
 20 47  1  0  0  0  0
 20 48  1  0  0  0  0
 21 49  1  0  0  0  0
 21 50  1  0  0  0  0
 21 51  1  0  0  0  0
M  END
> <PUBCHEM_COMPOUND_CID>
11449446

> <PUBCHEM_CONFORMER_RMSD>
1.4

> <PUBCHEM_CONFORMER_DIVERSEORDER>
1
4
44
50
33
62
63
24
21
57
8
10
17
54
47
39
53
7
28
58
40
3
25
32
41
46
27
23
61
56
34
48
35
36
15
30
26
20
13
19
22
60
52
55
59
9
11
14
18
45
2
12
49
37
16
6
31
29
42
51
5
38
43

> <PUBCHEM_MMFF94_PARTIAL_CHARGES>
10
1 -0.65
12 0.06
17 0.66
19 0.66
2 -0.57
3 -0.65
4 -0.57
52 0.5
53 0.5
7 0.06

> <PUBCHEM_EFFECTIVE_ROTOR_COUNT>
14

> <PUBCHEM_PHARMACOPHORE_FEATURES>
8
1 1 acceptor
1 18 hydrophobe
1 2 acceptor
1 21 hydrophobe
1 3 acceptor
1 4 acceptor
3 1 2 17 anion
3 3 4 19 anion

> <PUBCHEM_HEAVY_ATOM_COUNT>
21

> <PUBCHEM_ATOM_DEF_STEREO_COUNT>
2

> <PUBCHEM_ATOM_UDEF_STEREO_COUNT>
0

> <PUBCHEM_BOND_DEF_STEREO_COUNT>
0

> <PUBCHEM_BOND_UDEF_STEREO_COUNT>
0

> <PUBCHEM_ISOTOPIC_ATOM_COUNT>
0

> <PUBCHEM_COMPONENT_COUNT>
1

> <PUBCHEM_CACTVS_TAUTO_COUNT>
1

> <PUBCHEM_CONFORMER_ID>
00AEB46600000001

> <PUBCHEM_MMFF94_ENERGY>
13.5533

> <PUBCHEM_FEATURE_SELFOVERLAP>
40.713

> <PUBCHEM_SHAPE_FINGERPRINT>
10066227 49 17988087669873972782
11135926 11 15195285300869986004
11315181 36 17312824879326844641
12082328 90 18343581815914115308
12089408 11 12175617375042698272
12091667 2 18408887334694257659
13885169 127 18411982456000796658
14251764 18 17967248690205486730
14251764 46 18040435495153323874
15152005 1 17553754458727194535
15183329 4 18040429997574196546
15461852 350 18412267246813481958
17093844 174 9655575206163931789
18927931 339 18335706057596404163
21150785 3 18407760344282511514
21315763 28 18410856573384826856
22224240 67 16298387977252002458
232437 2 18343023286357955302
23521765 1 18341897390471409730
33684 2 18186240632922824914
59521270 166 18411133616197615415
67123 10 18343584058572637722
8209 1 18410576185250801722

> <PUBCHEM_SHAPE_MULTIPOLES>
408.69
32.6
1.61
1.07
85.13
0.47
-0.02
-3.69
-2.9
-4.48
-0.25
-2.42
-0.15
0.21

> <PUBCHEM_SHAPE_SELFOVERLAP>
764.607

> <PUBCHEM_SHAPE_VOLUME>
254.2

> <PUBCHEM_COORDINATE_TYPE>
2
5
10

$$$$
