21323382
  -OEChem-02172602463D

 33 35  0     0  0  0  0  0  0999 V2000
    3.9346   -0.9498   -0.0410 O   0  0  0  0  0  0  0  0  0  0  0  0
   -5.0171   -1.4016   -0.1351 O   0  0  0  0  0  0  0  0  0  0  0  0
   -0.4125    2.7777    0.3177 O   0  0  0  0  0  0  0  0  0  0  0  0
    1.6851   -0.1592    0.0861 N   0  0  0  0  0  0  0  0  0  0  0  0
    2.1372    1.9766   -0.1545 N   0  0  0  0  0  0  0  0  0  0  0  0
    3.3219    1.2949   -0.2079 N   0  0  0  0  0  0  0  0  0  0  0  0
   -1.3923    0.6788    0.0820 C   0  0  0  0  0  0  0  0  0  0  0  0
   -1.3957   -0.7239    0.1755 C   0  0  0  0  0  0  0  0  0  0  0  0
    1.1553    1.1076    0.0174 C   0  0  0  0  0  0  0  0  0  0  0  0
   -0.1982    1.5761    0.1536 C   0  0  0  0  0  0  0  0  0  0  0  0
   -0.2457   -1.6213    0.3568 C   0  0  0  0  0  0  0  0  0  0  0  0
    1.0631   -1.3701    0.2905 C   0  0  0  0  0  0  0  0  0  0  0  0
   -2.6412   -1.3951    0.1019 C   0  0  0  0  0  0  0  0  0  0  0  0
    3.0405    0.0261   -0.0540 C   0  0  0  0  0  0  0  0  0  0  0  0
   -2.6269    1.3503   -0.0925 C   0  0  0  0  0  0  0  0  0  0  0  0
   -3.8455   -0.7146   -0.0669 C   0  0  0  0  0  0  0  0  0  0  0  0
   -3.8377    0.6640   -0.1664 C   0  0  0  0  0  0  0  0  0  0  0  0
    5.3277   -0.6070   -0.2078 C   0  0  0  0  0  0  0  0  0  0  0  0
    6.1575   -1.8716   -0.1446 C   0  0  0  0  0  0  0  0  0  0  0  0
   -6.2100   -0.6379   -0.3109 C   0  0  0  0  0  0  0  0  0  0  0  0
   -0.5026   -2.6660    0.5361 H   0  0  0  0  0  0  0  0  0  0  0  0
    1.7359   -2.2174    0.4058 H   0  0  0  0  0  0  0  0  0  0  0  0
   -2.6835   -2.4824    0.1736 H   0  0  0  0  0  0  0  0  0  0  0  0
   -2.6718    2.4344   -0.1816 H   0  0  0  0  0  0  0  0  0  0  0  0
   -4.7275    1.2688   -0.3016 H   0  0  0  0  0  0  0  0  0  0  0  0
    5.4668   -0.1176   -1.1786 H   0  0  0  0  0  0  0  0  0  0  0  0
    5.6316    0.0777    0.5923 H   0  0  0  0  0  0  0  0  0  0  0  0
    6.0113   -2.3806    0.8139 H   0  0  0  0  0  0  0  0  0  0  0  0
    5.8502   -2.5733   -0.9270 H   0  0  0  0  0  0  0  0  0  0  0  0
    7.2209   -1.6483   -0.2677 H   0  0  0  0  0  0  0  0  0  0  0  0
   -7.0452   -1.3451   -0.3433 H   0  0  0  0  0  0  0  0  0  0  0  0
   -6.2066   -0.1016   -1.2659 H   0  0  0  0  0  0  0  0  0  0  0  0
   -6.3882    0.0302    0.5385 H   0  0  0  0  0  0  0  0  0  0  0  0
  1 14  1  0  0  0  0
  1 18  1  0  0  0  0
  2 16  1  0  0  0  0
  2 20  1  0  0  0  0
  3 10  2  0  0  0  0
  4  9  1  0  0  0  0
  4 12  1  0  0  0  0
  4 14  1  0  0  0  0
  5  6  1  0  0  0  0
  5  9  2  0  0  0  0
  6 14  2  0  0  0  0
  7  8  2  0  0  0  0
  7 10  1  0  0  0  0
  7 15  1  0  0  0  0
  8 11  1  0  0  0  0
  8 13  1  0  0  0  0
  9 10  1  0  0  0  0
 11 12  2  0  0  0  0
 11 21  1  0  0  0  0
 12 22  1  0  0  0  0
 13 16  2  0  0  0  0
 13 23  1  0  0  0  0
 15 17  2  0  0  0  0
 15 24  1  0  0  0  0
 16 17  1  0  0  0  0
 17 25  1  0  0  0  0
 18 19  1  0  0  0  0
 18 26  1  0  0  0  0
 18 27  1  0  0  0  0
 19 28  1  0  0  0  0
 19 29  1  0  0  0  0
 19 30  1  0  0  0  0
 20 31  1  0  0  0  0
 20 32  1  0  0  0  0
 20 33  1  0  0  0  0
M  END
> <PUBCHEM_COMPOUND_CID>
21323382

> <PUBCHEM_CONFORMER_RMSD>
0.6

> <PUBCHEM_CONFORMER_DIVERSEORDER>
1
5
6
3
4
2

> <PUBCHEM_MMFF94_PARTIAL_CHARGES>
24
1 -0.34
10 0.57
11 -0.18
12 -0.18
13 -0.15
14 0.25
15 -0.15
16 0.08
17 -0.15
18 0.28
2 -0.36
20 0.28
21 0.15
22 0.15
23 0.15
24 0.15
25 0.15
3 -0.57
4 0.33
5 -0.34
6 -0.34
7 0.09
8 0.03
9 0.1

> <PUBCHEM_EFFECTIVE_ROTOR_COUNT>
3

> <PUBCHEM_PHARMACOPHORE_FEATURES>
7
1 2 acceptor
1 3 acceptor
3 4 5 9 cation
3 4 6 14 cation
5 4 5 6 9 14 rings
6 7 8 13 15 16 17 rings
7 4 7 8 9 10 11 12 rings

> <PUBCHEM_HEAVY_ATOM_COUNT>
20

> <PUBCHEM_ATOM_DEF_STEREO_COUNT>
0

> <PUBCHEM_ATOM_UDEF_STEREO_COUNT>
0

> <PUBCHEM_BOND_DEF_STEREO_COUNT>
0

> <PUBCHEM_BOND_UDEF_STEREO_COUNT>
0

> <PUBCHEM_ISOTOPIC_ATOM_COUNT>
0

> <PUBCHEM_COMPONENT_COUNT>
1

> <PUBCHEM_CACTVS_TAUTO_COUNT>
1

> <PUBCHEM_CONFORMER_ID>
01455E7600000001

> <PUBCHEM_MMFF94_ENERGY>
62.1281

> <PUBCHEM_FEATURE_SELFOVERLAP>
38.08

> <PUBCHEM_SHAPE_FINGERPRINT>
10693767 8 18056179488257322367
10967382 1 18337953518754518801
11458722 379 18334860489482298082
11471102 20 18337950203350879165
12011746 2 18333445448393344895
12166972 35 17894916243091474029
12236239 1 17989488550233470363
12403259 226 18410850001504914061
12715332 25 18060135470246703295
13140716 1 18411147951849234312
13288520 33 18412265008265264406
13583140 156 14835838400966316778
13862211 1 18409446956169759458
14115302 16 17895201055315873471
15196674 1 18410293622629578257
15536298 74 18341611559564631944
200 152 18202844352895996043
20028762 73 18273492385939307270
20374829 77 18411418393107461806
20832881 197 18341333370517542825
21267235 1 18410017632600437227
21279426 13 18337105657597277836
221357 26 18409163320723947501
221490 88 18191030199224077090
2297311 6 18271534104738321030
23402539 116 18342735187275409118
23557571 272 18131073696985829887
23559900 14 18338230578315185560
2748010 2 16752409608959989393
2871803 45 18261105292604066269
296302 2 8358263644100857539
3004659 81 18187082854239263340
3286 77 17561081423413037816
335352 9 18410292506533862335
350125 39 18409449167777190965
465052 167 18343026626518484223
5104073 3 18412829100727596489
559249 180 18337669707067705191
59755656 215 18336829701802008454
6138700 20 18337110073008774210
9709674 26 18191589859216738322
9981440 41 17326895578804858032

> <PUBCHEM_SHAPE_MULTIPOLES>
379.04
11.83
2.21
0.62
3.3
0.82
0
-6.63
-1.75
0.52
0.11
-0.04
-0.02
-0.03

> <PUBCHEM_SHAPE_SELFOVERLAP>
826.797

> <PUBCHEM_SHAPE_VOLUME>
206.2

> <PUBCHEM_COORDINATE_TYPE>
2
5
10

$$$$
