132604855
  -OEChem-02172602373D

 63 65  0     1  0  0  0  0  0999 V2000
   -3.8842    1.9199    0.5046 O   0  0  0  0  0  0  0  0  0  0  0  0
   -2.9189   -0.0956   -0.1660 O   0  0  0  0  0  0  0  0  0  0  0  0
   -7.6574    0.5521   -0.3671 O   0  0  0  0  0  0  0  0  0  0  0  0
   -7.1962    3.3865   -0.0370 O   0  0  0  0  0  0  0  0  0  0  0  0
   -5.2954   -0.7456   -1.5579 O   0  0  0  0  0  0  0  0  0  0  0  0
   -3.2998    4.5252    1.1572 O   0  0  0  0  0  0  0  0  0  0  0  0
    0.6130   -0.5211   -0.5284 O   0  0  0  0  0  0  0  0  0  0  0  0
   -1.2948    1.2569   -1.0888 O   0  0  0  0  0  0  0  0  0  0  0  0
    2.5902   -5.4151   -0.5254 O   0  0  0  0  0  0  0  0  0  0  0  0
    0.8982    0.4876    1.5304 O   0  0  0  0  0  0  0  0  0  0  0  0
    1.1723   -6.8221    1.4074 O   0  0  0  0  0  0  0  0  0  0  0  0
    7.4633    3.9906    1.0563 O   0  0  0  0  0  0  0  0  0  0  0  0
    8.6803    2.6489   -1.0525 O   0  0  0  0  0  0  0  0  0  0  0  0
   -6.4115    1.1914   -0.6493 C   0  0  1  0  0  0  0  0  0  0  0  0
   -6.2577    2.3717    0.3101 C   0  0  1  0  0  0  0  0  0  0  0  0
   -4.8414    2.9472    0.2405 C   0  0  1  0  0  0  0  0  0  0  0  0
   -5.2729    0.1860   -0.4767 C   0  0  2  0  0  0  0  0  0  0  0  0
   -3.9120    0.8824   -0.4728 C   0  0  1  0  0  0  0  0  0  0  0  0
   -4.6286    4.0503    1.2725 C   0  0  0  0  0  0  0  0  0  0  0  0
   -1.6403    0.2228   -0.5322 C   0  0  0  0  0  0  0  0  0  0  0  0
   -0.7055   -0.9159   -0.1717 C   0  0  1  0  0  0  0  0  0  0  0  0
   -1.0668   -2.1850   -0.9470 C   0  0  0  0  0  0  0  0  0  0  0  0
   -0.4672   -3.4219   -0.3216 C   0  0  0  0  0  0  0  0  0  0  0  0
    0.7981   -3.8584   -0.7139 C   0  0  0  0  0  0  0  0  0  0  0  0
   -1.1784   -4.1274    0.6490 C   0  0  0  0  0  0  0  0  0  0  0  0
    1.3017    0.1761    0.4213 C   0  0  0  0  0  0  0  0  0  0  0  0
    1.3525   -5.0004   -0.1354 C   0  0  0  0  0  0  0  0  0  0  0  0
   -0.6243   -5.2694    1.2272 C   0  0  0  0  0  0  0  0  0  0  0  0
    0.6412   -5.7058    0.8351 C   0  0  0  0  0  0  0  0  0  0  0  0
    2.6393    0.4957   -0.1270 C   0  0  0  0  0  0  0  0  0  0  0  0
    3.5135    1.1829    0.6218 C   0  0  0  0  0  0  0  0  0  0  0  0
    4.8671    1.5689    0.1855 C   0  0  0  0  0  0  0  0  0  0  0  0
    5.5374    2.6081    0.8307 C   0  0  0  0  0  0  0  0  0  0  0  0
    5.4780    0.8957   -0.8724 C   0  0  0  0  0  0  0  0  0  0  0  0
    6.8186    2.9742    0.4182 C   0  0  0  0  0  0  0  0  0  0  0  0
    6.7591    1.2618   -1.2851 C   0  0  0  0  0  0  0  0  0  0  0  0
    7.4295    2.3009   -0.6399 C   0  0  0  0  0  0  0  0  0  0  0  0
   -6.4746    1.5375   -1.6876 H   0  0  0  0  0  0  0  0  0  0  0  0
   -6.4891    2.0482    1.3324 H   0  0  0  0  0  0  0  0  0  0  0  0
   -5.4090   -0.3945    0.4435 H   0  0  0  0  0  0  0  0  0  0  0  0
   -4.6350    3.3684   -0.7529 H   0  0  0  0  0  0  0  0  0  0  0  0
   -3.7106    1.3023   -1.4684 H   0  0  0  0  0  0  0  0  0  0  0  0
   -5.3158    4.8868    1.1140 H   0  0  0  0  0  0  0  0  0  0  0  0
   -4.7572    3.6635    2.2890 H   0  0  0  0  0  0  0  0  0  0  0  0
   -7.6258    0.2173    0.5453 H   0  0  0  0  0  0  0  0  0  0  0  0
   -6.9910    3.6901   -0.9377 H   0  0  0  0  0  0  0  0  0  0  0  0
   -5.1752   -0.2499   -2.3858 H   0  0  0  0  0  0  0  0  0  0  0  0
   -0.7869   -1.0898    0.9093 H   0  0  0  0  0  0  0  0  0  0  0  0
   -3.1852    5.2227    1.8249 H   0  0  0  0  0  0  0  0  0  0  0  0
   -2.1536   -2.3247   -1.0060 H   0  0  0  0  0  0  0  0  0  0  0  0
   -0.7232   -2.1066   -1.9873 H   0  0  0  0  0  0  0  0  0  0  0  0
    1.3524   -3.3068   -1.4695 H   0  0  0  0  0  0  0  0  0  0  0  0
   -2.1641   -3.7955    0.9645 H   0  0  0  0  0  0  0  0  0  0  0  0
   -1.1890   -5.8091    1.9827 H   0  0  0  0  0  0  0  0  0  0  0  0
    2.8477    0.1685   -1.1389 H   0  0  0  0  0  0  0  0  0  0  0  0
    3.2391    1.5077    1.6229 H   0  0  0  0  0  0  0  0  0  0  0  0
    2.9302   -4.8056   -1.2027 H   0  0  0  0  0  0  0  0  0  0  0  0
    0.5399   -7.1771    2.0556 H   0  0  0  0  0  0  0  0  0  0  0  0
    5.0639    3.1366    1.6555 H   0  0  0  0  0  0  0  0  0  0  0  0
    5.0027    0.0681   -1.3907 H   0  0  0  0  0  0  0  0  0  0  0  0
    7.2255    0.7263   -2.1079 H   0  0  0  0  0  0  0  0  0  0  0  0
    6.8895    4.3378    1.7606 H   0  0  0  0  0  0  0  0  0  0  0  0
    8.9400    2.0758   -1.7942 H   0  0  0  0  0  0  0  0  0  0  0  0
  1 16  1  0  0  0  0
  1 18  1  0  0  0  0
  2 18  1  0  0  0  0
  2 20  1  0  0  0  0
  3 14  1  0  0  0  0
  3 45  1  0  0  0  0
  4 15  1  0  0  0  0
  4 46  1  0  0  0  0
  5 17  1  0  0  0  0
  5 47  1  0  0  0  0
  6 19  1  0  0  0  0
  6 49  1  0  0  0  0
  7 21  1  0  0  0  0
  7 26  1  0  0  0  0
  8 20  2  0  0  0  0
  9 27  1  0  0  0  0
  9 57  1  0  0  0  0
 10 26  2  0  0  0  0
 11 29  1  0  0  0  0
 11 58  1  0  0  0  0
 12 35  1  0  0  0  0
 12 62  1  0  0  0  0
 13 37  1  0  0  0  0
 13 63  1  0  0  0  0
 14 15  1  0  0  0  0
 14 17  1  0  0  0  0
 14 38  1  0  0  0  0
 15 16  1  0  0  0  0
 15 39  1  0  0  0  0
 16 19  1  0  0  0  0
 16 41  1  0  0  0  0
 17 18  1  0  0  0  0
 17 40  1  0  0  0  0
 18 42  1  0  0  0  0
 19 43  1  0  0  0  0
 19 44  1  0  0  0  0
 20 21  1  0  0  0  0
 21 22  1  0  0  0  0
 21 48  1  0  0  0  0
 22 23  1  0  0  0  0
 22 50  1  0  0  0  0
 22 51  1  0  0  0  0
 23 24  2  0  0  0  0
 23 25  1  0  0  0  0
 24 27  1  0  0  0  0
 24 52  1  0  0  0  0
 25 28  2  0  0  0  0
 25 53  1  0  0  0  0
 26 30  1  0  0  0  0
 27 29  2  0  0  0  0
 28 29  1  0  0  0  0
 28 54  1  0  0  0  0
 30 31  2  0  0  0  0
 30 55  1  0  0  0  0
 31 32  1  0  0  0  0
 31 56  1  0  0  0  0
 32 33  2  0  0  0  0
 32 34  1  0  0  0  0
 33 35  1  0  0  0  0
 33 59  1  0  0  0  0
 34 36  2  0  0  0  0
 34 60  1  0  0  0  0
 35 37  2  0  0  0  0
 36 37  1  0  0  0  0
 36 61  1  0  0  0  0
M  END
> <PUBCHEM_COMPOUND_CID>
132604855

> <PUBCHEM_CONFORMER_RMSD>
1.2

> <PUBCHEM_CONFORMER_DIVERSEORDER>
1
102
57
32
59
23
50
68
103
48
88
37
77
7
3
28
46
61
52
91
79
22
36
105
40
82
83
72
66
73
95
49
101
76
87
106
92
86
90
6
71
85
98
63
25
18
69
84
42
67
43
45
94
26
34
11
12
60
51
31
74
104
44
100
33
14
97
62
80
24
30
64
27
96
15
41
29
13
75
56
2
93
65
4
47
9
58
8
70
17
81
78
54
53
20
99
55
89
39
35
10
38
5
21
16
19

> <PUBCHEM_MMFF94_PARTIAL_CHARGES>
53
1 -0.56
10 -0.57
11 -0.53
12 -0.53
13 -0.53
14 0.28
15 0.28
16 0.28
17 0.28
18 0.56
19 0.28
2 -0.43
20 0.66
21 0.34
22 0.14
23 -0.14
24 -0.15
25 -0.15
26 0.71
27 0.08
28 -0.15
29 0.08
3 -0.68
30 -0.14
31 -0.18
32 0.03
33 -0.15
34 -0.15
35 0.08
36 -0.15
37 0.08
4 -0.68
45 0.4
46 0.4
47 0.4
49 0.4
5 -0.68
52 0.15
53 0.15
54 0.15
55 0.15
56 0.15
57 0.45
58 0.45
59 0.15
6 -0.68
60 0.15
61 0.15
62 0.45
63 0.45
7 -0.43
8 -0.57
9 -0.53

> <PUBCHEM_EFFECTIVE_ROTOR_COUNT>
11.2

> <PUBCHEM_PHARMACOPHORE_FEATURES>
18
1 1 acceptor
1 10 acceptor
1 11 donor
1 12 donor
1 13 donor
1 3 acceptor
1 3 donor
1 4 acceptor
1 4 donor
1 5 acceptor
1 5 donor
1 6 acceptor
1 6 donor
1 8 acceptor
1 9 donor
6 1 14 15 16 17 18 rings
6 23 24 25 27 28 29 rings
6 32 33 34 35 36 37 rings

> <PUBCHEM_HEAVY_ATOM_COUNT>
37

> <PUBCHEM_ATOM_DEF_STEREO_COUNT>
6

> <PUBCHEM_ATOM_UDEF_STEREO_COUNT>
0

> <PUBCHEM_BOND_DEF_STEREO_COUNT>
1

> <PUBCHEM_BOND_UDEF_STEREO_COUNT>
0

> <PUBCHEM_ISOTOPIC_ATOM_COUNT>
0

> <PUBCHEM_COMPONENT_COUNT>
1

> <PUBCHEM_CACTVS_TAUTO_COUNT>
288

> <PUBCHEM_CONFORMER_ID>
07E763B700000001

> <PUBCHEM_MMFF94_ENERGY>
93.6217

> <PUBCHEM_FEATURE_SELFOVERLAP>
91.38

> <PUBCHEM_SHAPE_FINGERPRINT>
10190206 1 18199733912438677743
10290309 65 18335974260217244580
10675989 125 18268996388988605654
11007060 377 18271527605925418088
11062273 23 17972310991315303274
11136131 41 18263641762491402306
11411753 3 17913779594746000576
12013929 112 18263100898457972708
12988421 55 18262784233531842772
13248334 5 18121216480949508906
14150023 24 18409162199763928274
14790565 3 18411981325986502496
14849402 71 17979075985734059195
15064981 194 18046077209685966124
15183329 4 15698005136792950188
15200665 1 18197214969384305610
15230672 131 18408604786931174014
15347591 1 18193837043259638653
15351339 4 17988079976543053952
15361156 5 17767965694925938622
15400415 2 18409165520053255452
15439362 3 18337110042922715767
15890870 6 18411699898339770109
15927050 60 18413105069789186255
15980000 95 17474390171771933534
16090146 7 18339942488155867080
16990350 14 18195528082683266432
17980427 26 18268136570252718183
18393751 57 18335140908024109085
19304152 47 18335708235060778081
20505436 4 17822283631080624248
21133410 127 18043528317930849901
21133665 82 18342742932077403310
21424621 283 18411982468490520964
249999 5 18266175033193091387
3383291 50 18265052616472616385
3627633 1 17689435309731444638
4058900 60 18340212903406518048
4073 2 18336831906032172123
4516262 110 18336820902152270293
5265222 85 18339922743900433352
563151 97 18411132507658644613
5776283 40 18200591526654355473
6057620 51 18341323466776294685
6058803 2 17983846801742595055
6703917 75 18337964475042323060
9896288 288 18116716420401571314

> <PUBCHEM_SHAPE_MULTIPOLES>
685.14
20.26
9.39
1.19
15.1
18.37
-0.09
-37.84
3.41
1.59
-4.13
0.3
0.11
-0.83

> <PUBCHEM_SHAPE_SELFOVERLAP>
1457.728

> <PUBCHEM_SHAPE_VOLUME>
376.3

> <PUBCHEM_COORDINATE_TYPE>
2
5
10

$$$$
