442084
  -OEChem-02172602353D

 51 53  0     1  0  0  0  0  0999 V2000
   -0.7928   -2.5007    0.5280 O   0  0  0  0  0  0  0  0  0  0  0  0
   -2.2350    2.6778   -0.1846 O   0  0  0  0  0  0  0  0  0  0  0  0
   -3.2804   -1.9673   -0.0875 O   0  0  0  0  0  0  0  0  0  0  0  0
    2.3148    0.6168   -0.1932 C   0  0  2  0  0  0  0  0  0  0  0  0
    1.4433   -0.5888    0.3071 C   0  0  2  0  0  0  0  0  0  0  0  0
    3.8710    0.3954   -0.1328 C   0  0  0  0  0  0  0  0  0  0  0  0
    1.7971   -1.8236   -0.5826 C   0  0  0  0  0  0  0  0  0  0  0  0
    4.2256   -1.0987   -0.3445 C   0  0  0  0  0  0  0  0  0  0  0  0
    1.8460    1.9306    0.4412 C   0  0  0  0  0  0  0  0  0  0  0  0
    3.1974   -1.8155   -1.2059 C   0  0  0  0  0  0  0  0  0  0  0  0
   -0.0580   -0.2355    0.2007 C   0  0  0  0  0  0  0  0  0  0  0  0
    0.3952    2.2226    0.0649 C   0  0  0  0  0  0  0  0  0  0  0  0
    1.6953   -0.9330    1.7959 C   0  0  0  0  0  0  0  0  0  0  0  0
   -0.5334    1.0230    0.0740 C   0  0  0  0  0  0  0  0  0  0  0  0
    4.5237    1.2124   -1.2796 C   0  0  0  0  0  0  0  0  0  0  0  0
    4.5251    0.8835    1.1764 C   0  0  0  0  0  0  0  0  0  0  0  0
   -1.0640   -1.3364    0.2686 C   0  0  0  0  0  0  0  0  0  0  0  0
   -1.9627    1.3263   -0.0605 C   0  0  0  0  0  0  0  0  0  0  0  0
   -2.9269    0.3888   -0.0919 C   0  0  0  0  0  0  0  0  0  0  0  0
   -2.5049   -1.0267    0.0150 C   0  0  0  0  0  0  0  0  0  0  0  0
   -4.4053    0.6112   -0.2214 C   0  0  0  0  0  0  0  0  0  0  0  0
   -4.9293   -0.0462   -1.4942 C   0  0  0  0  0  0  0  0  0  0  0  0
   -5.1419    0.0843    1.0070 C   0  0  0  0  0  0  0  0  0  0  0  0
    2.0741    0.7156   -1.2657 H   0  0  0  0  0  0  0  0  0  0  0  0
    1.0823   -1.9215   -1.4106 H   0  0  0  0  0  0  0  0  0  0  0  0
    1.6984   -2.7439    0.0080 H   0  0  0  0  0  0  0  0  0  0  0  0
    4.3088   -1.6229    0.6141 H   0  0  0  0  0  0  0  0  0  0  0  0
    5.2150   -1.1945   -0.8097 H   0  0  0  0  0  0  0  0  0  0  0  0
    2.4618    2.7725    0.1054 H   0  0  0  0  0  0  0  0  0  0  0  0
    1.9396    1.8958    1.5322 H   0  0  0  0  0  0  0  0  0  0  0  0
    3.5174   -2.8489   -1.3848 H   0  0  0  0  0  0  0  0  0  0  0  0
    3.1511   -1.3390   -2.1930 H   0  0  0  0  0  0  0  0  0  0  0  0
    0.3789    2.6611   -0.9422 H   0  0  0  0  0  0  0  0  0  0  0  0
    0.0321    2.9931    0.7570 H   0  0  0  0  0  0  0  0  0  0  0  0
    2.7091   -1.2902    1.9815 H   0  0  0  0  0  0  0  0  0  0  0  0
    1.5177   -0.0748    2.4521 H   0  0  0  0  0  0  0  0  0  0  0  0
    1.0337   -1.7342    2.1451 H   0  0  0  0  0  0  0  0  0  0  0  0
    4.3153    2.2829   -1.1814 H   0  0  0  0  0  0  0  0  0  0  0  0
    4.1573    0.8910   -2.2608 H   0  0  0  0  0  0  0  0  0  0  0  0
    5.6134    1.0917   -1.2814 H   0  0  0  0  0  0  0  0  0  0  0  0
    4.4394    1.9691    1.2939 H   0  0  0  0  0  0  0  0  0  0  0  0
    5.5956    0.6455    1.1875 H   0  0  0  0  0  0  0  0  0  0  0  0
    4.0826    0.4204    2.0610 H   0  0  0  0  0  0  0  0  0  0  0  0
   -4.6431    1.6757   -0.2953 H   0  0  0  0  0  0  0  0  0  0  0  0
   -3.1838    2.8248   -0.3055 H   0  0  0  0  0  0  0  0  0  0  0  0
   -5.0056   -1.1352   -1.4351 H   0  0  0  0  0  0  0  0  0  0  0  0
   -4.3111    0.2101   -2.3622 H   0  0  0  0  0  0  0  0  0  0  0  0
   -5.9426    0.3176   -1.7035 H   0  0  0  0  0  0  0  0  0  0  0  0
   -4.7160    0.4953    1.9295 H   0  0  0  0  0  0  0  0  0  0  0  0
   -5.1399   -1.0062    1.0891 H   0  0  0  0  0  0  0  0  0  0  0  0
   -6.1935    0.3924    0.9700 H   0  0  0  0  0  0  0  0  0  0  0  0
  1 17  2  0  0  0  0
  2 18  1  0  0  0  0
  2 45  1  0  0  0  0
  3 20  2  0  0  0  0
  4  5  1  0  0  0  0
  4  6  1  0  0  0  0
  4  9  1  0  0  0  0
  4 24  1  0  0  0  0
  5  7  1  0  0  0  0
  5 11  1  0  0  0  0
  5 13  1  0  0  0  0
  6  8  1  0  0  0  0
  6 15  1  0  0  0  0
  6 16  1  0  0  0  0
  7 10  1  0  0  0  0
  7 25  1  0  0  0  0
  7 26  1  0  0  0  0
  8 10  1  0  0  0  0
  8 27  1  0  0  0  0
  8 28  1  0  0  0  0
  9 12  1  0  0  0  0
  9 29  1  0  0  0  0
  9 30  1  0  0  0  0
 10 31  1  0  0  0  0
 10 32  1  0  0  0  0
 11 14  2  0  0  0  0
 11 17  1  0  0  0  0
 12 14  1  0  0  0  0
 12 33  1  0  0  0  0
 12 34  1  0  0  0  0
 13 35  1  0  0  0  0
 13 36  1  0  0  0  0
 13 37  1  0  0  0  0
 14 18  1  0  0  0  0
 15 38  1  0  0  0  0
 15 39  1  0  0  0  0
 15 40  1  0  0  0  0
 16 41  1  0  0  0  0
 16 42  1  0  0  0  0
 16 43  1  0  0  0  0
 17 20  1  0  0  0  0
 18 19  2  0  0  0  0
 19 20  1  0  0  0  0
 19 21  1  0  0  0  0
 21 22  1  0  0  0  0
 21 23  1  0  0  0  0
 21 44  1  0  0  0  0
 22 46  1  0  0  0  0
 22 47  1  0  0  0  0
 22 48  1  0  0  0  0
 23 49  1  0  0  0  0
 23 50  1  0  0  0  0
 23 51  1  0  0  0  0
M  END
> <PUBCHEM_COMPOUND_CID>
442084

> <PUBCHEM_CONFORMER_RMSD>
0.6

> <PUBCHEM_CONFORMER_DIVERSEORDER>
1

> <PUBCHEM_MMFF94_PARTIAL_CHARGES>
13
1 -0.57
11 -0.12
12 0.14
14 -0.14
17 0.56
18 0.08
19 -0.12
2 -0.53
20 0.56
21 0.14
3 -0.57
45 0.45
5 0.14

> <PUBCHEM_EFFECTIVE_ROTOR_COUNT>
2.2

> <PUBCHEM_PHARMACOPHORE_FEATURES>
8
1 1 acceptor
1 2 donor
1 3 acceptor
3 21 22 23 hydrophobe
3 6 15 16 hydrophobe
6 11 14 17 18 19 20 rings
6 4 5 6 7 8 10 rings
6 4 5 9 11 12 14 rings

> <PUBCHEM_HEAVY_ATOM_COUNT>
23

> <PUBCHEM_ATOM_DEF_STEREO_COUNT>
2

> <PUBCHEM_ATOM_UDEF_STEREO_COUNT>
0

> <PUBCHEM_BOND_DEF_STEREO_COUNT>
0

> <PUBCHEM_BOND_UDEF_STEREO_COUNT>
0

> <PUBCHEM_ISOTOPIC_ATOM_COUNT>
0

> <PUBCHEM_COMPONENT_COUNT>
1

> <PUBCHEM_CACTVS_TAUTO_COUNT>
83

> <PUBCHEM_CONFORMER_ID>
0006BEE400000001

> <PUBCHEM_MMFF94_ENERGY>
70.798

> <PUBCHEM_FEATURE_SELFOVERLAP>
40.64

> <PUBCHEM_SHAPE_FINGERPRINT>
10366900 7 18131067164425046816
10498660 4 18334855021946628303
10693767 8 18129360667219858887
10863032 1 18272374140032469822
10906281 52 18338249261797430528
10967382 1 18410856533880554842
11132069 177 18410289228846197672
11578080 2 16843590815482258290
116883 192 18270408174634793060
12011746 2 18411417314865065949
12236239 1 17385722483036700354
12403814 3 17313096462909431349
12553582 1 18411133654103727969
12788726 201 18339920416260780937
128620 24 18186805759707272909
13140716 1 18193555803155630665
13221675 6 18410009952871552497
13224815 77 18342448223261831282
13583140 156 14476955654356284117
14790565 3 18266751190429696697
15196674 1 18410857689242737614
15238133 3 14418129574029500246
15375358 24 18412824711439752626
15536298 74 18343302543933743748
15635459 17 18343023268175454604
15788980 27 17240196633989524722
15848702 151 17988929933654144151
1601671 61 18412265060089831888
16752209 62 18337663118883382809
16945 1 18339089305881675256
17349148 13 18339914940229731832
17980427 23 17971464342224880836
1813 80 17675930910439833781
18186145 218 18334008398262259567
19141452 34 18201723968260086927
19591789 44 18266182721104994811
19862831 5 18333170565684914302
200 152 17632574968070143279
20510252 161 18270680857587154369
20645477 70 18410569630292269333
20691752 17 17532381867894412200
21029758 11 18343015588726930745
21267235 1 18338528443203504790
21285901 2 18335701598407573324
21421861 104 18041836195446995586
221357 26 18342738473115437581
2334 1 18338234851833849888
23402539 116 18337943580200273902
23557571 272 18272091539869468020
23559900 14 18413108390214734032
23566358 2 18339922606377304860
2748010 2 18338516326789370492
2838139 119 16734403801234595516
2871803 45 18408882901924141173
296302 2 17676769859191360126
3004659 81 18261394421507962638
3286 77 16773504478320856082
3323516 105 18342742884088885996
335352 9 18410575076073164196
34934 24 18410849984060703138
3680242 22 18261955137440080554
4028521 119 18334009471919583847
4280585 95 17479187358284179518
4340502 62 16226051076531236257
495365 180 17703498991547971856
5104073 3 18340488841964779873
58051976 378 18411132537142913444
59755656 215 18411702054982486966
633830 44 18338234848045135559
69090 78 18343299262489292815
7364860 26 18272366511981031448
9709674 26 18342743974868369014
9981440 41 17466515924950180904

> <PUBCHEM_SHAPE_MULTIPOLES>
455.72
9.77
2.37
1.15
4
0.07
-0.07
0.57
1.51
-0.32
0.1
-0.36
-0.15
0.35

> <PUBCHEM_SHAPE_SELFOVERLAP>
971.935

> <PUBCHEM_SHAPE_VOLUME>
252.3

> <PUBCHEM_COORDINATE_TYPE>
2
5
10

$$$$
