102463858
  -OEChem-02172602353D

 38 40  0     1  0  0  0  0  0999 V2000
    0.1720    1.4617    1.8999 O   0  0  0  0  0  0  0  0  0  0  0  0
   -2.2938    2.3502   -1.1226 O   0  0  0  0  0  0  0  0  0  0  0  0
    2.7693    2.0418   -1.0862 O   0  0  0  0  0  0  0  0  0  0  0  0
   -0.0544   -2.8194    0.9064 O   0  0  0  0  0  0  0  0  0  0  0  0
   -2.6033   -2.9083    0.5169 O   0  0  0  0  0  0  0  0  0  0  0  0
    0.2949    3.3203    0.5335 O   0  0  0  0  0  0  0  0  0  0  0  0
   -4.7112    1.0802   -0.9690 O   0  0  0  0  0  0  0  0  0  0  0  0
   -4.8569   -1.5408   -0.1399 O   0  0  0  0  0  0  0  0  0  0  0  0
    5.0129    0.4863   -0.8991 O   0  0  0  0  0  0  0  0  0  0  0  0
    4.8160   -2.1429   -0.0622 O   0  0  0  0  0  0  0  0  0  0  0  0
    0.1665    1.1056   -0.4175 C   0  0  2  0  0  0  0  0  0  0  0  0
   -1.1527    0.3706   -0.3692 C   0  0  0  0  0  0  0  0  0  0  0  0
    1.3859    0.2159   -0.3513 C   0  0  0  0  0  0  0  0  0  0  0  0
   -1.2401   -0.9640    0.0452 C   0  0  0  0  0  0  0  0  0  0  0  0
    1.3046   -1.1191    0.0634 C   0  0  0  0  0  0  0  0  0  0  0  0
   -0.0111   -1.7150    0.3788 C   0  0  0  0  0  0  0  0  0  0  0  0
   -2.3353    1.0477   -0.7106 C   0  0  0  0  0  0  0  0  0  0  0  0
    2.6468    0.7442   -0.6750 C   0  0  0  0  0  0  0  0  0  0  0  0
   -2.4826   -1.6058    0.1269 C   0  0  0  0  0  0  0  0  0  0  0  0
    0.2201    2.1106    0.7018 C   0  0  0  0  0  0  0  0  0  0  0  0
    2.4586   -1.9070    0.1626 C   0  0  0  0  0  0  0  0  0  0  0  0
   -3.5728    0.4077   -0.6346 C   0  0  0  0  0  0  0  0  0  0  0  0
    3.7961   -0.0413   -0.5814 C   0  0  0  0  0  0  0  0  0  0  0  0
   -3.6459   -0.9172   -0.2134 C   0  0  0  0  0  0  0  0  0  0  0  0
    3.7017   -1.3648   -0.1603 C   0  0  0  0  0  0  0  0  0  0  0  0
    0.2149    2.3028    3.0569 C   0  0  0  0  0  0  0  0  0  0  0  0
    0.2042    1.6115   -1.3905 H   0  0  0  0  0  0  0  0  0  0  0  0
    2.3946   -2.9445    0.4816 H   0  0  0  0  0  0  0  0  0  0  0  0
   -1.3995    2.7184   -1.0952 H   0  0  0  0  0  0  0  0  0  0  0  0
    1.9257    2.5155   -1.0725 H   0  0  0  0  0  0  0  0  0  0  0  0
   -1.7319   -3.3167    0.6298 H   0  0  0  0  0  0  0  0  0  0  0  0
   -5.3987    0.4465   -1.2311 H   0  0  0  0  0  0  0  0  0  0  0  0
   -5.5581   -0.8784   -0.0285 H   0  0  0  0  0  0  0  0  0  0  0  0
    5.6887   -0.2023   -0.7736 H   0  0  0  0  0  0  0  0  0  0  0  0
    4.5590   -3.0294    0.2444 H   0  0  0  0  0  0  0  0  0  0  0  0
    0.1696    1.6641    3.9430 H   0  0  0  0  0  0  0  0  0  0  0  0
   -0.6461    2.9780    3.0659 H   0  0  0  0  0  0  0  0  0  0  0  0
    1.1511    2.8686    3.0789 H   0  0  0  0  0  0  0  0  0  0  0  0
  1 20  1  0  0  0  0
  1 26  1  0  0  0  0
  2 17  1  0  0  0  0
  2 29  1  0  0  0  0
  3 18  1  0  0  0  0
  3 30  1  0  0  0  0
  4 16  2  0  0  0  0
  5 19  1  0  0  0  0
  5 31  1  0  0  0  0
  6 20  2  0  0  0  0
  7 22  1  0  0  0  0
  7 32  1  0  0  0  0
  8 24  1  0  0  0  0
  8 33  1  0  0  0  0
  9 23  1  0  0  0  0
  9 34  1  0  0  0  0
 10 25  1  0  0  0  0
 10 35  1  0  0  0  0
 11 12  1  0  0  0  0
 11 13  1  0  0  0  0
 11 20  1  0  0  0  0
 11 27  1  0  0  0  0
 12 14  2  0  0  0  0
 12 17  1  0  0  0  0
 13 15  1  0  0  0  0
 13 18  2  0  0  0  0
 14 16  1  0  0  0  0
 14 19  1  0  0  0  0
 15 16  1  0  0  0  0
 15 21  2  0  0  0  0
 17 22  2  0  0  0  0
 18 23  1  0  0  0  0
 19 24  2  0  0  0  0
 21 25  1  0  0  0  0
 21 28  1  0  0  0  0
 22 24  1  0  0  0  0
 23 25  2  0  0  0  0
 26 36  1  0  0  0  0
 26 37  1  0  0  0  0
 26 38  1  0  0  0  0
M  END
> <PUBCHEM_COMPOUND_CID>
102463858

> <PUBCHEM_CONFORMER_RMSD>
0.6

> <PUBCHEM_CONFORMER_DIVERSEORDER>
1
6
3
2
4
5

> <PUBCHEM_MMFF94_PARTIAL_CHARGES>
34
1 -0.43
10 -0.53
11 0.35
12 -0.14
13 -0.14
14 0.09
15 0.09
16 0.4
17 0.08
18 0.08
19 0.08
2 -0.53
20 0.66
21 -0.15
22 0.08
23 0.08
24 0.08
25 0.08
26 0.28
28 0.15
29 0.45
3 -0.53
30 0.45
31 0.45
32 0.45
33 0.45
34 0.45
35 0.45
4 -0.57
5 -0.53
6 -0.57
7 -0.53
8 -0.53
9 -0.53

> <PUBCHEM_EFFECTIVE_ROTOR_COUNT>
2.2

> <PUBCHEM_PHARMACOPHORE_FEATURES>
12
1 10 donor
1 2 donor
1 3 donor
1 4 acceptor
1 5 donor
1 6 acceptor
1 7 donor
1 8 donor
1 9 donor
6 11 12 13 14 15 16 rings
6 12 14 17 19 22 24 rings
6 13 15 18 21 23 25 rings

> <PUBCHEM_HEAVY_ATOM_COUNT>
26

> <PUBCHEM_ATOM_DEF_STEREO_COUNT>
0

> <PUBCHEM_ATOM_UDEF_STEREO_COUNT>
1

> <PUBCHEM_BOND_DEF_STEREO_COUNT>
0

> <PUBCHEM_BOND_UDEF_STEREO_COUNT>
0

> <PUBCHEM_ISOTOPIC_ATOM_COUNT>
0

> <PUBCHEM_COMPONENT_COUNT>
1

> <PUBCHEM_CACTVS_TAUTO_COUNT>
586

> <PUBCHEM_CONFORMER_ID>
061B797200000001

> <PUBCHEM_MMFF94_ENERGY>
82.4792

> <PUBCHEM_FEATURE_SELFOVERLAP>
60.969

> <PUBCHEM_SHAPE_FINGERPRINT>
10165383 225 16830673924989210353
10863032 1 18333452066373283270
10967382 1 18262801890305945927
1100329 8 17473822823190823433
11112241 14 16627405960658595376
11578080 2 17487605562517921035
12403259 226 18337950216119957447
12788726 201 17916313748901931360
13027679 85 18413389834783840777
13134695 92 17417531435642774977
13140716 1 18409733928372020450
14251745 187 18263639735435623803
14787075 74 18410292540387510118
14790565 3 18050290259055028269
15196674 1 18334013882418765991
15420108 30 16754942261612974656
16945 1 18189890903366901135
1813 80 15913329095771250768
19591789 44 18334858363716371911
200 152 18343301448822896822
20510252 161 18412547574554103898
20691752 17 17973143304748344171
20775438 99 17336421657295795359
21267235 1 18334865995340649966
221357 26 18410570712972187783
221490 88 18261401104050073550
22182313 1 18048576399694554135
2334 1 18408605893776864670
23419403 2 17916563423872275792
23557571 272 17773875290372733518
23558518 356 17410787864630959046
23559900 14 18410571782629735510
2748010 2 17255967195539169246
3004659 81 18186802448878701846
335352 9 18261952925569151663
350125 39 18408325484885492629
5104073 3 18333732407436456186
57527585 103 17682437721363873650
6438718 38 16844181047463524041
81228 2 17844263821333056536
9709674 26 18335145292964107542
9981440 41 16378912046230200260

> <PUBCHEM_SHAPE_MULTIPOLES>
476.37
7.79
3.22
1.39
0.8
0.43
1.15
-2.95
-3.03
-0.18
1.18
0.05
1.28
0.33

> <PUBCHEM_SHAPE_SELFOVERLAP>
1072.831

> <PUBCHEM_SHAPE_VOLUME>
248

> <PUBCHEM_COORDINATE_TYPE>
2
5
10

$$$$
