10852028
  -OEChem-02172602523D

 40 40  0     1  0  0  0  0  0999 V2000
   -5.1365   -0.7363    0.8732 F   0  0  0  0  0  0  0  0  0  0  0  0
   -3.8372   -2.4214    0.3897 F   0  0  0  0  0  0  0  0  0  0  0  0
   -4.3800   -0.9783   -1.1530 F   0  0  0  0  0  0  0  0  0  0  0  0
   -3.4273    1.5310   -1.0976 O   0  0  0  0  0  0  0  0  0  0  0  0
   -1.6980    2.0516    2.0601 O   0  0  0  0  0  0  0  0  0  0  0  0
    1.7741   -0.9583   -0.1227 O   0  0  0  0  0  0  0  0  0  0  0  0
   -2.8407   -0.2493    0.4981 C   0  0  1  0  0  0  0  0  0  0  0  0
   -3.1173    1.2584    0.2669 C   0  0  1  0  0  0  0  0  0  0  0  0
   -4.0543   -1.1103    0.1530 C   0  0  0  0  0  0  0  0  0  0  0  0
   -1.9614    2.1736    0.6720 C   0  0  0  0  0  0  0  0  0  0  0  0
   -1.6437   -0.7367   -0.2870 C   0  0  0  0  0  0  0  0  0  0  0  0
   -0.5421   -1.2537    0.2777 C   0  0  0  0  0  0  0  0  0  0  0  0
    0.6417   -1.7295   -0.4986 C   0  0  0  0  0  0  0  0  0  0  0  0
   -3.7193    2.9058   -1.2972 C   0  0  0  0  0  0  0  0  0  0  0  0
    2.9395   -1.3631   -0.8286 C   0  0  0  0  0  0  0  0  0  0  0  0
    4.0970   -0.5150   -0.3900 C   0  0  0  0  0  0  0  0  0  0  0  0
    4.3753    0.6704   -1.0614 C   0  0  0  0  0  0  0  0  0  0  0  0
    4.8806   -0.9218    0.6842 C   0  0  0  0  0  0  0  0  0  0  0  0
    5.4513    1.4589   -0.6536 C   0  0  0  0  0  0  0  0  0  0  0  0
    5.9564   -0.1332    1.0920 C   0  0  0  0  0  0  0  0  0  0  0  0
    6.2417    1.0572    0.4230 C   0  0  0  0  0  0  0  0  0  0  0  0
   -2.6477   -0.3911    1.5698 H   0  0  0  0  0  0  0  0  0  0  0  0
   -3.9952    1.5136    0.8770 H   0  0  0  0  0  0  0  0  0  0  0  0
   -1.0466    1.9434    0.1163 H   0  0  0  0  0  0  0  0  0  0  0  0
   -2.1600    3.2352    0.5093 H   0  0  0  0  0  0  0  0  0  0  0  0
   -1.6960   -0.6554   -1.3703 H   0  0  0  0  0  0  0  0  0  0  0  0
   -0.4848   -1.3386    1.3599 H   0  0  0  0  0  0  0  0  0  0  0  0
    0.4740   -1.6359   -1.5780 H   0  0  0  0  0  0  0  0  0  0  0  0
    0.8200   -2.7854   -0.2645 H   0  0  0  0  0  0  0  0  0  0  0  0
   -4.3098    3.3347   -0.4808 H   0  0  0  0  0  0  0  0  0  0  0  0
   -4.3184    2.9822   -2.2102 H   0  0  0  0  0  0  0  0  0  0  0  0
   -2.8048    3.4784   -1.4780 H   0  0  0  0  0  0  0  0  0  0  0  0
   -2.5121    2.2877    2.5367 H   0  0  0  0  0  0  0  0  0  0  0  0
    3.1501   -2.4215   -0.6306 H   0  0  0  0  0  0  0  0  0  0  0  0
    2.7813   -1.2554   -1.9092 H   0  0  0  0  0  0  0  0  0  0  0  0
    3.7647    0.9940   -1.8999 H   0  0  0  0  0  0  0  0  0  0  0  0
    4.6660   -1.8460    1.2137 H   0  0  0  0  0  0  0  0  0  0  0  0
    5.6731    2.3860   -1.1740 H   0  0  0  0  0  0  0  0  0  0  0  0
    6.5717   -0.4455    1.9307 H   0  0  0  0  0  0  0  0  0  0  0  0
    7.0792    1.6713    0.7408 H   0  0  0  0  0  0  0  0  0  0  0  0
  1  9  1  0  0  0  0
  2  9  1  0  0  0  0
  3  9  1  0  0  0  0
  4  8  1  0  0  0  0
  4 14  1  0  0  0  0
  5 10  1  0  0  0  0
  5 33  1  0  0  0  0
  6 13  1  0  0  0  0
  6 15  1  0  0  0  0
  7  8  1  0  0  0  0
  7  9  1  0  0  0  0
  7 11  1  0  0  0  0
  7 22  1  0  0  0  0
  8 10  1  0  0  0  0
  8 23  1  0  0  0  0
 10 24  1  0  0  0  0
 10 25  1  0  0  0  0
 11 12  2  0  0  0  0
 11 26  1  0  0  0  0
 12 13  1  0  0  0  0
 12 27  1  0  0  0  0
 13 28  1  0  0  0  0
 13 29  1  0  0  0  0
 14 30  1  0  0  0  0
 14 31  1  0  0  0  0
 14 32  1  0  0  0  0
 15 16  1  0  0  0  0
 15 34  1  0  0  0  0
 15 35  1  0  0  0  0
 16 17  2  0  0  0  0
 16 18  1  0  0  0  0
 17 19  1  0  0  0  0
 17 36  1  0  0  0  0
 18 20  2  0  0  0  0
 18 37  1  0  0  0  0
 19 21  2  0  0  0  0
 19 38  1  0  0  0  0
 20 21  1  0  0  0  0
 20 39  1  0  0  0  0
 21 40  1  0  0  0  0
M  END
> <PUBCHEM_COMPOUND_CID>
10852028

> <PUBCHEM_CONFORMER_RMSD>
0.8

> <PUBCHEM_CONFORMER_DIVERSEORDER>
2
163
157
6
151
217
185
60
213
7
162
199
4
126
18
16
191
221
41
216
93
35
132
48
98
166
73
204
54
136
169
164
131
102
109
84
11
226
50
150
15
168
9
129
94
101
181
110
140
154
156
14
186
90
137
229
189
1
91
25
159
124
92
228
59
62
76
46
223
194
145
70
21
72
51
215
179
183
63
122
180
214
103
141
187
3
89
227
66
134
174
197
211
205
37
147
20
173
206
78
118
133
115
220
130
155
158
19
108
172
67
152
64
198
95
116
202
39
31
195
170
106
188
69
52
29
75
23
153
105
65
219
56
190
123
139
34
10
149
224
8
192
57
210
22
5
125
113
165
99
33
49
182
111
12
148
96
119
79
43
212
32
196
24
71
176
146
88
161
128
171
107
17
114
167
138
120
86
135
81
222
80
177
30
193
225
160
55
143
184
44
82
58
26
203
68
85
53
40
45
142
104
77
27
121
100
117
74
61
36
38
178
47
207
201
13
42
112
83
209
200
175
127
28
87
144
218
97
208

> <PUBCHEM_MMFF94_PARTIAL_CHARGES>
29
1 -0.34
10 0.28
11 -0.29
12 -0.29
13 0.42
14 0.28
15 0.42
16 -0.14
17 -0.15
18 -0.15
19 -0.15
2 -0.34
20 -0.15
21 -0.15
26 0.15
27 0.15
3 -0.34
33 0.4
36 0.15
37 0.15
38 0.15
39 0.15
4 -0.56
40 0.15
5 -0.68
6 -0.56
7 0.14
8 0.28
9 1.02

> <PUBCHEM_EFFECTIVE_ROTOR_COUNT>
9

> <PUBCHEM_PHARMACOPHORE_FEATURES>
5
1 4 acceptor
1 5 acceptor
1 5 donor
1 6 acceptor
6 16 17 18 19 20 21 rings

> <PUBCHEM_HEAVY_ATOM_COUNT>
21

> <PUBCHEM_ATOM_DEF_STEREO_COUNT>
2

> <PUBCHEM_ATOM_UDEF_STEREO_COUNT>
0

> <PUBCHEM_BOND_DEF_STEREO_COUNT>
1

> <PUBCHEM_BOND_UDEF_STEREO_COUNT>
0

> <PUBCHEM_ISOTOPIC_ATOM_COUNT>
0

> <PUBCHEM_COMPONENT_COUNT>
1

> <PUBCHEM_CACTVS_TAUTO_COUNT>
1

> <PUBCHEM_CONFORMER_ID>
00A596BC00000002

> <PUBCHEM_MMFF94_ENERGY>
48.3319

> <PUBCHEM_FEATURE_SELFOVERLAP>
25.373

> <PUBCHEM_SHAPE_FINGERPRINT>
10498660 4 18340208488354438180
10670039 82 18270981076529047652
11128504 68 14477242678504795554
12107183 9 17681820818463205458
12507557 5 17894630374463478687
12555020 224 7853574557109649011
12596602 18 17822288028842499898
12916748 109 18342183280147369574
13914758 101 16226034579625213999
14123255 352 18410852136377453788
14251764 38 18199473160552036036
15537594 2 10807941470405129436
17844677 252 18337679624669749486
19489759 90 18186518804363063026
20645477 56 17989207087978625182
20645477 70 16056616330939618270
21315764 268 18337104666114395084
21623110 236 18411709793617099593
2215653 11 8214147321906034178
22950370 63 10592040276237620046
235170 7 15267058100090307340
23557571 272 18058468559152896183
329604 57 18412265073064398368
341906 21 18408609141378581228
5104073 3 18261960622087262130
90127 26 18188220827383895858
960060 61 11455891373835972570
9981440 41 18186804647443190939

> <PUBCHEM_SHAPE_MULTIPOLES>
392.74
15.15
2.57
1.24
14.45
1.12
0.19
2.72
0.75
-2.96
-0.24
-0.23
0.56
0.3

> <PUBCHEM_SHAPE_SELFOVERLAP>
794.488

> <PUBCHEM_SHAPE_VOLUME>
229.9

> <PUBCHEM_COORDINATE_TYPE>
2
5
10

$$$$
