44146779
  -OEChem-02172602263D

 33 35  0     1  0  0  0  0  0999 V2000
    1.8089   -0.9776   -0.2358 O   0  0  0  0  0  0  0  0  0  0  0  0
    3.8239    0.0169    1.5406 O   0  0  0  0  0  0  0  0  0  0  0  0
   -3.0125   -1.0456    0.0302 O   0  0  0  0  0  0  0  0  0  0  0  0
   -0.6413   -2.4522   -0.1045 O   0  0  0  0  0  0  0  0  0  0  0  0
   -5.2982   -0.9920    0.1604 O   0  0  0  0  0  0  0  0  0  0  0  0
    2.6938    0.1225   -0.5747 C   0  0  2  0  0  0  0  0  0  0  0  0
    4.0260   -0.0822    0.1278 C   0  0  0  0  0  0  0  0  0  0  0  0
    2.0157    1.4434   -0.1790 C   0  0  0  0  0  0  0  0  0  0  0  0
    0.6066    0.9902   -0.1643 C   0  0  0  0  0  0  0  0  0  0  0  0
    0.5680   -0.3974   -0.1729 C   0  0  0  0  0  0  0  0  0  0  0  0
    5.0234    1.0094   -0.2655 C   0  0  0  0  0  0  0  0  0  0  0  0
    4.6057   -1.4656   -0.1783 C   0  0  0  0  0  0  0  0  0  0  0  0
   -0.5566    1.7393   -0.0865 C   0  0  0  0  0  0  0  0  0  0  0  0
   -0.6193   -1.0970   -0.1026 C   0  0  0  0  0  0  0  0  0  0  0  0
   -1.7786    1.0598   -0.0271 C   0  0  0  0  0  0  0  0  0  0  0  0
   -1.7903   -0.3423   -0.0350 C   0  0  0  0  0  0  0  0  0  0  0  0
   -3.0463    1.7669    0.0511 C   0  0  0  0  0  0  0  0  0  0  0  0
   -4.1946    1.0885    0.1122 C   0  0  0  0  0  0  0  0  0  0  0  0
   -4.2342   -0.3852    0.1040 C   0  0  0  0  0  0  0  0  0  0  0  0
    2.8320    0.0869   -1.6654 H   0  0  0  0  0  0  0  0  0  0  0  0
    2.2034    2.2262   -0.9197 H   0  0  0  0  0  0  0  0  0  0  0  0
    2.2924    1.8058    0.8155 H   0  0  0  0  0  0  0  0  0  0  0  0
    5.9883    0.8521    0.2310 H   0  0  0  0  0  0  0  0  0  0  0  0
    4.6833    2.0020    0.0493 H   0  0  0  0  0  0  0  0  0  0  0  0
    5.1956    1.0259   -1.3467 H   0  0  0  0  0  0  0  0  0  0  0  0
    5.5790   -1.5958    0.3093 H   0  0  0  0  0  0  0  0  0  0  0  0
    3.9661   -2.2647    0.2125 H   0  0  0  0  0  0  0  0  0  0  0  0
    4.7394   -1.6170   -1.2544 H   0  0  0  0  0  0  0  0  0  0  0  0
   -0.5109    2.8238   -0.0665 H   0  0  0  0  0  0  0  0  0  0  0  0
    4.6807   -0.1243    1.9783 H   0  0  0  0  0  0  0  0  0  0  0  0
   -3.0436    2.8513    0.0590 H   0  0  0  0  0  0  0  0  0  0  0  0
    0.2755   -2.7738   -0.1584 H   0  0  0  0  0  0  0  0  0  0  0  0
   -5.1426    1.6123    0.1705 H   0  0  0  0  0  0  0  0  0  0  0  0
  1  6  1  0  0  0  0
  1 10  1  0  0  0  0
  2  7  1  0  0  0  0
  2 30  1  0  0  0  0
  3 16  1  0  0  0  0
  3 19  1  0  0  0  0
  4 14  1  0  0  0  0
  4 32  1  0  0  0  0
  5 19  2  0  0  0  0
  6  7  1  0  0  0  0
  6  8  1  0  0  0  0
  6 20  1  0  0  0  0
  7 11  1  0  0  0  0
  7 12  1  0  0  0  0
  8  9  1  0  0  0  0
  8 21  1  0  0  0  0
  8 22  1  0  0  0  0
  9 10  2  0  0  0  0
  9 13  1  0  0  0  0
 10 14  1  0  0  0  0
 11 23  1  0  0  0  0
 11 24  1  0  0  0  0
 11 25  1  0  0  0  0
 12 26  1  0  0  0  0
 12 27  1  0  0  0  0
 12 28  1  0  0  0  0
 13 15  2  0  0  0  0
 13 29  1  0  0  0  0
 14 16  2  0  0  0  0
 15 16  1  0  0  0  0
 15 17  1  0  0  0  0
 17 18  2  0  0  0  0
 17 31  1  0  0  0  0
 18 19  1  0  0  0  0
 18 33  1  0  0  0  0
M  END
> <PUBCHEM_COMPOUND_CID>
44146779

> <PUBCHEM_CONFORMER_RMSD>
0.6

> <PUBCHEM_CONFORMER_DIVERSEORDER>
1
4
3
5
2

> <PUBCHEM_MMFF94_PARTIAL_CHARGES>
22
1 -0.36
10 0.08
13 -0.15
14 0.08
15 0.03
16 0.08
17 -0.18
18 -0.14
19 0.71
2 -0.68
29 0.15
3 -0.23
30 0.4
31 0.15
32 0.45
33 0.15
4 -0.53
5 -0.57
6 0.28
7 0.28
8 0.14
9 -0.14

> <PUBCHEM_EFFECTIVE_ROTOR_COUNT>
1.6

> <PUBCHEM_PHARMACOPHORE_FEATURES>
9
1 1 acceptor
1 2 acceptor
1 2 donor
1 4 donor
1 5 acceptor
3 7 11 12 hydrophobe
5 1 6 8 9 10 rings
6 3 15 16 17 18 19 rings
6 9 10 13 14 15 16 rings

> <PUBCHEM_HEAVY_ATOM_COUNT>
19

> <PUBCHEM_ATOM_DEF_STEREO_COUNT>
1

> <PUBCHEM_ATOM_UDEF_STEREO_COUNT>
0

> <PUBCHEM_BOND_DEF_STEREO_COUNT>
0

> <PUBCHEM_BOND_UDEF_STEREO_COUNT>
0

> <PUBCHEM_ISOTOPIC_ATOM_COUNT>
0

> <PUBCHEM_COMPONENT_COUNT>
1

> <PUBCHEM_CACTVS_TAUTO_COUNT>
1

> <PUBCHEM_CONFORMER_ID>
02A1A05B00000001

> <PUBCHEM_MMFF94_ENERGY>
64.4754

> <PUBCHEM_FEATURE_SELFOVERLAP>
45.805

> <PUBCHEM_SHAPE_FINGERPRINT>
10062212 137 18409725153980629311
11132069 177 18411702054344001309
11401426 45 18412542111387286885
12032990 46 18411141320308861677
12107183 9 17613712622641530120
12119455 92 17131829846135145076
12236239 1 17822010904541000556
12251169 10 18410008875288545844
12403259 226 18410849949696417621
12403259 415 18201714055038075336
12403814 3 17676202476879448269
12670546 56 17095234800628181468
12715332 25 18131069359348643999
13140716 1 18194963182370918355
13288520 33 18411141307434398956
13675066 3 18272930522574720072
13690532 89 18408324375802813404
13862211 1 18410852183543329927
14115302 16 17676498284198922630
15042514 8 18266463281660522283
15196674 1 18410576158489467932
15209294 21 17845666854363292073
15536298 74 18271247105943317134
16945 1 18339930401732143948
17349148 13 18412543210529565141
17802600 8 18411135853174306869
17804303 29 18412547617118875708
17862501 102 18409165502451211161
1813 80 17240204296791547006
18522853 276 18412546522081446353
200 152 18202280308200745917
20028762 73 18057885930272176991
20510252 161 18272654510817951056
20645477 70 18270966748243815534
21267235 1 18409740563975238223
22854114 59 17918270956945414704
23402539 116 18343014502152517461
23463225 33 18334859398259846572
23557571 272 18059585680046365301
23559900 14 18271528607354255542
2748010 2 18195253217280539215
3004659 81 18261679182361579550
335352 9 18338518521427955981
34934 24 18337668591167525021
350125 39 18410578400942931477
4214541 1 18410294674907245261
43471831 8 18262797354720644355
465052 167 18113626715586218947
474 4 17024320828160212892
474229 33 18411982472706081191
5104073 3 18411138004799825288
5374978 207 18410288129920132480
69090 78 18343580754566744902
9709674 26 18412271631279343534

> <PUBCHEM_SHAPE_MULTIPOLES>
361.66
10.05
1.88
0.72
1.18
0.22
-0.13
0.67
-0.76
-0.47
0.09
0.47
-0.03
-0.03

> <PUBCHEM_SHAPE_SELFOVERLAP>
798.049

> <PUBCHEM_SHAPE_VOLUME>
195.9

> <PUBCHEM_COORDINATE_TYPE>
2
5
10

$$$$
