11463132
  -OEChem-02172602463D

 49 53  0     1  0  0  0  0  0999 V2000
   -1.0948    2.1407    0.2827 N   0  0  0  0  0  0  0  0  0  0  0  0
    2.9892    0.4822   -1.4655 N   0  0  0  0  0  0  0  0  0  0  0  0
    0.8320    1.3378   -0.7757 N   0  0  0  0  0  0  0  0  0  0  0  0
    1.9626    1.1447    1.8188 N   0  0  0  0  0  0  0  0  0  0  0  0
    0.7330    1.5842    1.6441 N   0  0  0  0  0  0  0  0  0  0  0  0
   -1.2225   -1.3430    0.9207 N   0  0  0  0  0  0  0  0  0  0  0  0
   -2.4549    0.9615   -1.3634 C   0  0  1  0  0  0  0  0  0  0  0  0
   -1.7717    2.2816   -0.9676 C   0  0  0  0  0  0  0  0  0  0  0  0
   -3.5163    0.5290   -0.3641 C   0  0  0  0  0  0  0  0  0  0  0  0
   -3.0464    1.0669   -2.7736 C   0  0  0  0  0  0  0  0  0  0  0  0
   -3.3991   -0.6704    0.3120 C   0  0  0  0  0  0  0  0  0  0  0  0
   -4.5909    1.3766   -0.1641 C   0  0  0  0  0  0  0  0  0  0  0  0
    3.9735    0.2906    0.5400 C   0  0  0  0  0  0  0  0  0  0  0  0
    2.6576    0.7923    0.7103 C   0  0  0  0  0  0  0  0  0  0  0  0
    2.0768    0.8989   -0.5385 C   0  0  0  0  0  0  0  0  0  0  0  0
    4.1573    0.1044   -0.8352 C   0  0  0  0  0  0  0  0  0  0  0  0
    0.2304    1.6608    0.3859 C   0  0  0  0  0  0  0  0  0  0  0  0
   -4.3914   -1.0365    1.2214 C   0  0  0  0  0  0  0  0  0  0  0  0
   -2.2748   -1.5614    0.1047 C   0  0  0  0  0  0  0  0  0  0  0  0
   -5.5831    1.0104    0.7454 C   0  0  0  0  0  0  0  0  0  0  0  0
   -5.4833   -0.1960    1.4381 C   0  0  0  0  0  0  0  0  0  0  0  0
    5.0313   -0.0257    1.4152 C   0  0  0  0  0  0  0  0  0  0  0  0
    5.3528   -0.3842   -1.3746 C   0  0  0  0  0  0  0  0  0  0  0  0
   -2.3214   -2.5444   -0.8664 C   0  0  0  0  0  0  0  0  0  0  0  0
    6.2314   -0.5151    0.8873 C   0  0  0  0  0  0  0  0  0  0  0  0
    6.3874   -0.6913   -0.4861 C   0  0  0  0  0  0  0  0  0  0  0  0
   -1.2071   -3.3632   -1.0112 C   0  0  0  0  0  0  0  0  0  0  0  0
   -0.1576   -2.1583    0.7505 C   0  0  0  0  0  0  0  0  0  0  0  0
   -0.1002   -3.1730   -0.1912 C   0  0  0  0  0  0  0  0  0  0  0  0
   -1.6631    0.2102   -1.4434 H   0  0  0  0  0  0  0  0  0  0  0  0
   -2.5107    3.0857   -0.8712 H   0  0  0  0  0  0  0  0  0  0  0  0
   -1.0888    2.6177   -1.7583 H   0  0  0  0  0  0  0  0  0  0  0  0
   -2.2576    1.2735   -3.5054 H   0  0  0  0  0  0  0  0  0  0  0  0
   -3.5338    0.1299   -3.0661 H   0  0  0  0  0  0  0  0  0  0  0  0
   -3.7869    1.8698   -2.8549 H   0  0  0  0  0  0  0  0  0  0  0  0
   -1.5705    2.3674    1.1481 H   0  0  0  0  0  0  0  0  0  0  0  0
   -4.6926    2.3189   -0.6931 H   0  0  0  0  0  0  0  0  0  0  0  0
   -4.3298   -1.9731    1.7708 H   0  0  0  0  0  0  0  0  0  0  0  0
    2.8340    0.4532   -2.4637 H   0  0  0  0  0  0  0  0  0  0  0  0
   -6.4337    1.6643    0.9139 H   0  0  0  0  0  0  0  0  0  0  0  0
   -6.2559   -0.4809    2.1462 H   0  0  0  0  0  0  0  0  0  0  0  0
    4.9241    0.1061    2.4880 H   0  0  0  0  0  0  0  0  0  0  0  0
    5.4765   -0.5219   -2.4436 H   0  0  0  0  0  0  0  0  0  0  0  0
   -3.1887   -2.6851   -1.5033 H   0  0  0  0  0  0  0  0  0  0  0  0
    7.0506   -0.7607    1.5579 H   0  0  0  0  0  0  0  0  0  0  0  0
    7.3283   -1.0731   -0.8742 H   0  0  0  0  0  0  0  0  0  0  0  0
   -1.2006   -4.1475   -1.7621 H   0  0  0  0  0  0  0  0  0  0  0  0
    0.6796   -1.9684    1.4140 H   0  0  0  0  0  0  0  0  0  0  0  0
    0.7799   -3.7983   -0.2868 H   0  0  0  0  0  0  0  0  0  0  0  0
  1  8  1  0  0  0  0
  1 17  1  0  0  0  0
  1 36  1  0  0  0  0
  2 15  1  0  0  0  0
  2 16  1  0  0  0  0
  2 39  1  0  0  0  0
  3 15  1  0  0  0  0
  3 17  2  0  0  0  0
  4  5  2  0  0  0  0
  4 14  1  0  0  0  0
  5 17  1  0  0  0  0
  6 19  1  0  0  0  0
  6 28  2  0  0  0  0
  7  8  1  0  0  0  0
  7  9  1  0  0  0  0
  7 10  1  0  0  0  0
  7 30  1  0  0  0  0
  8 31  1  0  0  0  0
  8 32  1  0  0  0  0
  9 11  1  0  0  0  0
  9 12  2  0  0  0  0
 10 33  1  0  0  0  0
 10 34  1  0  0  0  0
 10 35  1  0  0  0  0
 11 18  2  0  0  0  0
 11 19  1  0  0  0  0
 12 20  1  0  0  0  0
 12 37  1  0  0  0  0
 13 14  1  0  0  0  0
 13 16  1  0  0  0  0
 13 22  2  0  0  0  0
 14 15  2  0  0  0  0
 16 23  2  0  0  0  0
 18 21  1  0  0  0  0
 18 38  1  0  0  0  0
 19 24  2  0  0  0  0
 20 21  2  0  0  0  0
 20 40  1  0  0  0  0
 21 41  1  0  0  0  0
 22 25  1  0  0  0  0
 22 42  1  0  0  0  0
 23 26  1  0  0  0  0
 23 43  1  0  0  0  0
 24 27  1  0  0  0  0
 24 44  1  0  0  0  0
 25 26  2  0  0  0  0
 25 45  1  0  0  0  0
 26 46  1  0  0  0  0
 27 29  2  0  0  0  0
 27 47  1  0  0  0  0
 28 29  1  0  0  0  0
 28 48  1  0  0  0  0
 29 49  1  0  0  0  0
M  END
> <PUBCHEM_COMPOUND_CID>
11463132

> <PUBCHEM_CONFORMER_RMSD>
0.8

> <PUBCHEM_CONFORMER_DIVERSEORDER>
1
123
84
87
83
86
146
8
82
143
63
46
29
43
108
140
99
85
3
88
25
98
139
79
22
91
13
134
147
65
81
16
78
80
39
141
144
128
52
17
47
111
118
37
73
124
44
117
136
92
15
41
21
11
137
62
120
24
148
145
55
119
104
97
77
14
12
18
69
138
5
122
56
26
36
110
135
28
100
42
96
2
112
6
50
109
67
31
19
58
130
121
45
53
142
38
49
131
9
126
76
106
89
54
34
133
7
4
66
10
93
129
23
30
102
57
48
94
59
68
27
75
101
51
70
35
95
64
72
125
32
60
132
40
74
127
105
20
61
33
113
71
90
115
114
103
116
107

> <PUBCHEM_MMFF94_PARTIAL_CHARGES>
40
1 -0.87
12 -0.15
14 0.26
15 0.11
16 -0.15
17 0.72
18 -0.15
19 0.31
2 0.03
20 -0.15
21 -0.15
22 -0.15
23 -0.15
24 -0.15
25 -0.15
26 -0.15
27 -0.15
28 0.16
29 -0.15
3 -0.57
36 0.4
37 0.15
38 0.15
39 0.27
4 -0.26
40 0.15
41 0.15
42 0.15
43 0.15
44 0.15
45 0.15
46 0.15
47 0.15
48 0.15
49 0.15
5 -0.31
6 -0.62
7 0.14
8 0.37
9 -0.14

> <PUBCHEM_EFFECTIVE_ROTOR_COUNT>
5

> <PUBCHEM_PHARMACOPHORE_FEATURES>
11
1 1 donor
1 10 hydrophobe
1 2 cation
1 2 donor
1 6 acceptor
4 1 3 5 17 cation
5 2 13 14 15 16 rings
6 13 16 22 23 25 26 rings
6 3 4 5 14 15 17 rings
6 6 19 24 27 28 29 rings
6 9 11 12 18 20 21 rings

> <PUBCHEM_HEAVY_ATOM_COUNT>
29

> <PUBCHEM_ATOM_DEF_STEREO_COUNT>
0

> <PUBCHEM_ATOM_UDEF_STEREO_COUNT>
1

> <PUBCHEM_BOND_DEF_STEREO_COUNT>
0

> <PUBCHEM_BOND_UDEF_STEREO_COUNT>
0

> <PUBCHEM_ISOTOPIC_ATOM_COUNT>
0

> <PUBCHEM_COMPONENT_COUNT>
1

> <PUBCHEM_CACTVS_TAUTO_COUNT>
11

> <PUBCHEM_CONFORMER_ID>
00AEE9DC00000001

> <PUBCHEM_MMFF94_ENERGY>
89.2459

> <PUBCHEM_FEATURE_SELFOVERLAP>
56.045

> <PUBCHEM_SHAPE_FINGERPRINT>
10165383 225 18412270506604060113
11112241 14 17059475452840835370
11524674 6 18273213084611011647
11578080 2 18055074517520163832
11646440 116 17988658405742635171
12107698 1 16950005828653312509
12236239 1 17168147823582054620
12422481 6 18116435843166996361
12467345 10 16805605854280816664
12596602 18 13470395691741727524
12633257 1 18272375320731777317
12788726 201 18339096929417685280
13402501 40 18343026575068514790
13726171 33 17905926838743248228
14251751 93 17749100063266996748
14251757 5 18262528108132802486
14866123 147 18339361976260741007
15183329 4 17530963579767861682
15361156 5 17703791457409861444
15439362 3 17031323290598396812
16110190 28 18334579100357532004
16112460 7 18340781419749020192
16752209 62 18042101289085927862
21403212 168 18060145302397177425
23559900 14 18271522091957855056
3383291 50 18342174509819396259
338550 245 18187645765770594174
4015057 19 17702364312369838752
404807 14 13824839589366859205
508706 21 18411699910971244095
5265222 85 18336838584421240884
5385378 56 18270131093331141779
59755656 215 18270408196062650550
7226269 152 18202284697388388336

> <PUBCHEM_SHAPE_MULTIPOLES>
566.92
13.19
2.83
1.74
11.96
2.16
0.45
-0.39
-1.99
-2.25
0.59
-0.36
-0.4
0.65

> <PUBCHEM_SHAPE_SELFOVERLAP>
1271.415

> <PUBCHEM_SHAPE_VOLUME>
292

> <PUBCHEM_COORDINATE_TYPE>
2
5
10

$$$$
