9890994
  -OEChem-02172602553D

 82 86  0     1  0  0  0  0  0999 V2000
   -7.0685    1.1284   -0.2077 O   0  0  0  0  0  0  0  0  0  0  0  0
    3.2933   -2.1043   -1.9155 O   0  0  0  0  0  0  0  0  0  0  0  0
   -5.5623   -1.6444   -1.6952 O   0  0  0  0  0  0  0  0  0  0  0  0
    4.6951   -2.5491    1.7223 O   0  0  0  0  0  0  0  0  0  0  0  0
   -0.5425   -0.6280    0.2668 C   0  0  2  0  0  0  0  0  0  0  0  0
   -2.7630    0.8935    0.3169 C   0  0  2  0  0  0  0  0  0  0  0  0
   -1.2959    0.6610   -0.2467 C   0  0  1  0  0  0  0  0  0  0  0  0
   -3.5812   -0.4215    0.0089 C   0  0  2  0  0  0  0  0  0  0  0  0
    0.8584   -0.7512   -0.5486 C   0  0  1  0  0  0  0  0  0  0  0  0
   -1.4639   -1.8511    0.0386 C   0  0  0  0  0  0  0  0  0  0  0  0
   -5.1349   -0.3419    0.2621 C   0  0  1  0  0  0  0  0  0  0  0  0
   -2.8900   -1.6759    0.5842 C   0  0  0  0  0  0  0  0  0  0  0  0
   -3.4396    2.0553   -0.4772 C   0  0  0  0  0  0  0  0  0  0  0  0
    1.7272    0.4816   -0.2000 C   0  0  0  0  0  0  0  0  0  0  0  0
    1.5722   -2.1006   -0.2152 C   0  0  0  0  0  0  0  0  0  0  0  0
    3.8182   -0.9340    0.1960 C   0  0  1  0  0  0  0  0  0  0  0  0
   -5.6951    0.8886   -0.5135 C   0  0  2  0  0  0  0  0  0  0  0  0
   -0.2368   -0.5471    1.8012 C   0  0  0  0  0  0  0  0  0  0  0  0
   -0.3575    1.8498   -0.2311 C   0  0  0  0  0  0  0  0  0  0  0  0
   -4.9416    2.1847   -0.2359 C   0  0  0  0  0  0  0  0  0  0  0  0
    3.0398    0.3992    0.1472 C   0  0  0  0  0  0  0  0  0  0  0  0
   -2.7358    1.3011    1.8074 C   0  0  0  0  0  0  0  0  0  0  0  0
    3.0718   -2.1069   -0.5081 C   0  0  2  0  0  0  0  0  0  0  0  0
    0.6450   -0.7329   -2.0986 C   0  0  0  0  0  0  0  0  0  0  0  0
    0.9825    1.7489   -0.2160 C   0  0  0  0  0  0  0  0  0  0  0  0
   -5.8233   -1.6114   -0.3127 C   0  0  0  0  0  0  0  0  0  0  0  0
   -5.5218   -0.2883    1.7534 C   0  0  0  0  0  0  0  0  0  0  0  0
    5.2218   -0.7761   -0.4617 C   0  0  0  0  0  0  0  0  0  0  0  0
    3.8691    1.5968    0.6186 C   0  0  0  0  0  0  0  0  0  0  0  0
    5.2215    1.7513   -0.1097 C   0  0  0  0  0  0  0  0  0  0  0  0
    6.0183    0.4388    0.0128 C   0  0  0  0  0  0  0  0  0  0  0  0
    3.9950   -1.3287    1.6877 C   0  0  0  0  0  0  0  0  0  0  0  0
    6.0275    2.8833    0.5559 C   0  0  0  0  0  0  0  0  0  0  0  0
    4.9968    2.1311   -1.5867 C   0  0  0  0  0  0  0  0  0  0  0  0
   -1.4896    0.4994   -1.3160 H   0  0  0  0  0  0  0  0  0  0  0  0
   -3.4853   -0.5366   -1.0826 H   0  0  0  0  0  0  0  0  0  0  0  0
   -1.0286   -2.7478    0.4962 H   0  0  0  0  0  0  0  0  0  0  0  0
   -1.5458   -2.0644   -1.0332 H   0  0  0  0  0  0  0  0  0  0  0  0
   -3.4347   -2.5820    0.3043 H   0  0  0  0  0  0  0  0  0  0  0  0
   -2.8868   -1.6588    1.6771 H   0  0  0  0  0  0  0  0  0  0  0  0
   -3.2804    1.9072   -1.5537 H   0  0  0  0  0  0  0  0  0  0  0  0
   -2.9750    3.0159   -0.2264 H   0  0  0  0  0  0  0  0  0  0  0  0
    1.0984   -2.9070   -0.7912 H   0  0  0  0  0  0  0  0  0  0  0  0
    1.4454   -2.3816    0.8310 H   0  0  0  0  0  0  0  0  0  0  0  0
   -5.6401    0.7117   -1.5944 H   0  0  0  0  0  0  0  0  0  0  0  0
    0.2257    0.3996    2.0941 H   0  0  0  0  0  0  0  0  0  0  0  0
   -1.1257   -0.6692    2.4176 H   0  0  0  0  0  0  0  0  0  0  0  0
    0.4295   -1.3418    2.1412 H   0  0  0  0  0  0  0  0  0  0  0  0
   -0.7824    2.8475   -0.2789 H   0  0  0  0  0  0  0  0  0  0  0  0
   -5.1534    2.5378    0.7792 H   0  0  0  0  0  0  0  0  0  0  0  0
   -5.3364    2.9765   -0.8865 H   0  0  0  0  0  0  0  0  0  0  0  0
   -1.8169    1.8372    2.0653 H   0  0  0  0  0  0  0  0  0  0  0  0
   -3.5447    1.9856    2.0749 H   0  0  0  0  0  0  0  0  0  0  0  0
   -2.8305    0.4487    2.4814 H   0  0  0  0  0  0  0  0  0  0  0  0
    3.4553   -3.0788   -0.1793 H   0  0  0  0  0  0  0  0  0  0  0  0
    0.1195    0.1524   -2.4645 H   0  0  0  0  0  0  0  0  0  0  0  0
    1.5942   -0.7181   -2.6414 H   0  0  0  0  0  0  0  0  0  0  0  0
    0.0885   -1.6109   -2.4408 H   0  0  0  0  0  0  0  0  0  0  0  0
    1.5313    2.6830   -0.2282 H   0  0  0  0  0  0  0  0  0  0  0  0
   -6.9104   -1.5521   -0.1869 H   0  0  0  0  0  0  0  0  0  0  0  0
   -5.5054   -2.5447    0.1598 H   0  0  0  0  0  0  0  0  0  0  0  0
    5.1224   -0.6730   -1.5486 H   0  0  0  0  0  0  0  0  0  0  0  0
    5.8270   -1.6786   -0.3105 H   0  0  0  0  0  0  0  0  0  0  0  0
   -5.2628    0.6598    2.2254 H   0  0  0  0  0  0  0  0  0  0  0  0
   -6.6040   -0.4079    1.8857 H   0  0  0  0  0  0  0  0  0  0  0  0
   -5.0448   -1.0932    2.3213 H   0  0  0  0  0  0  0  0  0  0  0  0
    3.3353    2.5460    0.5418 H   0  0  0  0  0  0  0  0  0  0  0  0
    4.0473    1.4765    1.6955 H   0  0  0  0  0  0  0  0  0  0  0  0
    6.3273    0.2822    1.0538 H   0  0  0  0  0  0  0  0  0  0  0  0
    6.9467    0.5060   -0.5690 H   0  0  0  0  0  0  0  0  0  0  0  0
    3.0378   -1.4391    2.2093 H   0  0  0  0  0  0  0  0  0  0  0  0
    4.5824   -0.5992    2.2514 H   0  0  0  0  0  0  0  0  0  0  0  0
   -7.3724    1.8655   -0.7643 H   0  0  0  0  0  0  0  0  0  0  0  0
    4.1489   -2.5341   -2.0844 H   0  0  0  0  0  0  0  0  0  0  0  0
    7.0002    3.0149    0.0686 H   0  0  0  0  0  0  0  0  0  0  0  0
    5.4927    3.8380    0.4979 H   0  0  0  0  0  0  0  0  0  0  0  0
    6.2121    2.6705    1.6149 H   0  0  0  0  0  0  0  0  0  0  0  0
    4.4781    3.0934   -1.6676 H   0  0  0  0  0  0  0  0  0  0  0  0
    5.9514    2.2246   -2.1168 H   0  0  0  0  0  0  0  0  0  0  0  0
    4.3922    1.3937   -2.1234 H   0  0  0  0  0  0  0  0  0  0  0  0
   -4.7274   -2.1233   -1.8311 H   0  0  0  0  0  0  0  0  0  0  0  0
    4.0560   -3.2546    1.9200 H   0  0  0  0  0  0  0  0  0  0  0  0
  1 17  1  0  0  0  0
  1 73  1  0  0  0  0
  2 23  1  0  0  0  0
  2 74  1  0  0  0  0
  3 26  1  0  0  0  0
  3 81  1  0  0  0  0
  4 32  1  0  0  0  0
  4 82  1  0  0  0  0
  5  7  1  0  0  0  0
  5  9  1  0  0  0  0
  5 10  1  0  0  0  0
  5 18  1  0  0  0  0
  6  7  1  0  0  0  0
  6  8  1  0  0  0  0
  6 13  1  0  0  0  0
  6 22  1  0  0  0  0
  7 19  1  0  0  0  0
  7 35  1  0  0  0  0
  8 11  1  0  0  0  0
  8 12  1  0  0  0  0
  8 36  1  0  0  0  0
  9 14  1  0  0  0  0
  9 15  1  0  0  0  0
  9 24  1  0  0  0  0
 10 12  1  0  0  0  0
 10 37  1  0  0  0  0
 10 38  1  0  0  0  0
 11 17  1  0  0  0  0
 11 26  1  0  0  0  0
 11 27  1  0  0  0  0
 12 39  1  0  0  0  0
 12 40  1  0  0  0  0
 13 20  1  0  0  0  0
 13 41  1  0  0  0  0
 13 42  1  0  0  0  0
 14 21  2  0  0  0  0
 14 25  1  0  0  0  0
 15 23  1  0  0  0  0
 15 43  1  0  0  0  0
 15 44  1  0  0  0  0
 16 21  1  0  0  0  0
 16 23  1  0  0  0  0
 16 28  1  0  0  0  0
 16 32  1  0  0  0  0
 17 20  1  0  0  0  0
 17 45  1  0  0  0  0
 18 46  1  0  0  0  0
 18 47  1  0  0  0  0
 18 48  1  0  0  0  0
 19 25  2  0  0  0  0
 19 49  1  0  0  0  0
 20 50  1  0  0  0  0
 20 51  1  0  0  0  0
 21 29  1  0  0  0  0
 22 52  1  0  0  0  0
 22 53  1  0  0  0  0
 22 54  1  0  0  0  0
 23 55  1  0  0  0  0
 24 56  1  0  0  0  0
 24 57  1  0  0  0  0
 24 58  1  0  0  0  0
 25 59  1  0  0  0  0
 26 60  1  0  0  0  0
 26 61  1  0  0  0  0
 27 64  1  0  0  0  0
 27 65  1  0  0  0  0
 27 66  1  0  0  0  0
 28 31  1  0  0  0  0
 28 62  1  0  0  0  0
 28 63  1  0  0  0  0
 29 30  1  0  0  0  0
 29 67  1  0  0  0  0
 29 68  1  0  0  0  0
 30 31  1  0  0  0  0
 30 33  1  0  0  0  0
 30 34  1  0  0  0  0
 31 69  1  0  0  0  0
 31 70  1  0  0  0  0
 32 71  1  0  0  0  0
 32 72  1  0  0  0  0
 33 75  1  0  0  0  0
 33 76  1  0  0  0  0
 33 77  1  0  0  0  0
 34 78  1  0  0  0  0
 34 79  1  0  0  0  0
 34 80  1  0  0  0  0
M  END
> <PUBCHEM_COMPOUND_CID>
9890994

> <PUBCHEM_CONFORMER_RMSD>
0.8

> <PUBCHEM_CONFORMER_DIVERSEORDER>
1

> <PUBCHEM_MMFF94_PARTIAL_CHARGES>
22
1 -0.68
14 -0.14
16 0.14
17 0.28
19 -0.29
2 -0.68
21 -0.28
23 0.28
25 -0.15
26 0.28
29 0.14
3 -0.68
32 0.28
4 -0.68
49 0.15
59 0.15
7 0.14
73 0.4
74 0.4
81 0.4
82 0.4
9 0.14

> <PUBCHEM_EFFECTIVE_ROTOR_COUNT>
4.4

> <PUBCHEM_PHARMACOPHORE_FEATURES>
14
1 1 acceptor
1 1 donor
1 2 acceptor
1 2 donor
1 3 acceptor
1 3 donor
1 4 acceptor
1 4 donor
3 30 33 34 hydrophobe
6 16 21 28 29 30 31 rings
6 5 6 7 8 10 12 rings
6 5 7 9 14 19 25 rings
6 6 8 11 13 17 20 rings
6 9 14 15 16 21 23 rings

> <PUBCHEM_HEAVY_ATOM_COUNT>
34

> <PUBCHEM_ATOM_DEF_STEREO_COUNT>
9

> <PUBCHEM_ATOM_UDEF_STEREO_COUNT>
0

> <PUBCHEM_BOND_DEF_STEREO_COUNT>
0

> <PUBCHEM_BOND_UDEF_STEREO_COUNT>
0

> <PUBCHEM_ISOTOPIC_ATOM_COUNT>
0

> <PUBCHEM_COMPONENT_COUNT>
1

> <PUBCHEM_CACTVS_TAUTO_COUNT>
1

> <PUBCHEM_CONFORMER_ID>
0096ECB200000001

> <PUBCHEM_MMFF94_ENERGY>
158.7107

> <PUBCHEM_FEATURE_SELFOVERLAP>
71.107

> <PUBCHEM_SHAPE_FINGERPRINT>
10 15 18187927326367147728
10595046 47 18411416219880533161
10835480 77 18410286995970340061
10906281 52 18188506777231186756
11991303 11 17203606042363629318
12107183 9 17830166914139268208
12107698 1 18261951843959670034
12166972 35 18410576205750445665
12236239 1 18060422438443938988
12633257 1 18337669690446934178
12788726 201 18130509634620308857
13224815 77 18060424590417746062
13402501 40 18409730664033559304
13782708 43 17676765362545763458
13811026 1 18259984894761274457
13911987 19 17275108366055225637
14528608 73 18413109476556584500
14787075 74 18411699902275092921
14790565 3 18338801225255962380
14840074 17 18202283644994703005
15131766 46 15866894689060241972
15183329 4 18411697673693435833
15196674 1 18409448068223137801
15238133 3 13190326959895504295
15788980 27 18259988158983996163
15840311 113 17895193260509426501
15961568 22 18261115188146251428
17349148 13 18413108351206470635
17980427 23 17968103044672999509
1813 80 16443066092962378958
18608769 82 18266744756610534771
20511986 3 18335691771569631782
21033648 29 17095514072260250501
21859007 373 17242156964875770653
22149856 69 17846509110482788419
23522609 53 18127721346363497185
23559900 14 18270674381066667833
255183 451 17700142002508775982
3004659 81 18335421236428511976
3411729 13 18408321116798400440
34797466 226 18130793330321561613
350125 39 18412828010275524329
3633792 109 18341329990716143965
4073 2 18040721406340641331
4325135 7 18272369780740878381
4340502 62 17458343065841017608
5104073 3 18334299721335411985
5283173 99 18260827043027092981
59755656 215 18410295817463387772
6036956 94 16391268448477696524

> <PUBCHEM_SHAPE_MULTIPOLES>
676.23
15.98
2.79
1.49
6.21
0.25
-0.07
3.89
0.02
-2.04
0.13
-0.21
-0.45
-0.46

> <PUBCHEM_SHAPE_SELFOVERLAP>
1440.373

> <PUBCHEM_SHAPE_VOLUME>
368.9

> <PUBCHEM_COORDINATE_TYPE>
2
5
10

$$$$
