102403918
  -OEChem-02172602573D

 88 91  0     1  0  0  0  0  0999 V2000
    0.1579    0.9301    0.3265 O   0  0  0  0  0  0  0  0  0  0  0  0
   -1.4170   -2.8626    0.3588 O   0  0  0  0  0  0  0  0  0  0  0  0
    1.1627    2.1727   -1.4280 O   0  0  0  0  0  0  0  0  0  0  0  0
    1.8758   -1.3441   -0.1556 O   0  0  0  0  0  0  0  0  0  0  0  0
   -2.5388    0.4328   -0.7510 O   0  0  0  0  0  0  0  0  0  0  0  0
   -3.5894   -2.0419    0.1321 O   0  0  0  0  0  0  0  0  0  0  0  0
   -0.6268    4.3135   -0.7392 O   0  0  0  0  0  0  0  0  0  0  0  0
    0.7806    5.0324    1.5515 O   0  0  0  0  0  0  0  0  0  0  0  0
    3.3699    4.0689    0.8352 O   0  0  0  0  0  0  0  0  0  0  0  0
    0.0874   -5.1596    0.2312 O   0  0  0  0  0  0  0  0  0  0  0  0
    2.6697   -1.0588    1.9952 O   0  0  0  0  0  0  0  0  0  0  0  0
   -3.3879    1.4000    1.1674 O   0  0  0  0  0  0  0  0  0  0  0  0
   -7.2338    1.1740    1.4202 O   0  0  0  0  0  0  0  0  0  0  0  0
   -8.6108    1.5228   -0.9689 O   0  0  0  0  0  0  0  0  0  0  0  0
   10.0976   -1.1838    1.3093 O   0  0  0  0  0  0  0  0  0  0  0  0
   10.4333   -0.5549   -1.3776 O   0  0  0  0  0  0  0  0  0  0  0  0
   -0.2909   -0.2935   -0.2581 C   0  0  1  0  0  0  0  0  0  0  0  0
    0.5399   -1.4326    0.3329 C   0  0  1  0  0  0  0  0  0  0  0  0
   -1.7789   -0.4829    0.0373 C   0  0  2  0  0  0  0  0  0  0  0  0
   -0.0503   -2.7914   -0.0514 C   0  0  1  0  0  0  0  0  0  0  0  0
    0.0205    2.0204   -0.5783 C   0  0  2  0  0  0  0  0  0  0  0  0
   -2.2369   -1.9014   -0.3017 C   0  0  1  0  0  0  0  0  0  0  0  0
   -0.2466    3.3070    0.2006 C   0  0  1  0  0  0  0  0  0  0  0  0
    1.0014    3.7518    0.9649 C   0  0  1  0  0  0  0  0  0  0  0  0
    2.2144    3.8255    0.0367 C   0  0  2  0  0  0  0  0  0  0  0  0
    2.3693    2.5075   -0.7346 C   0  0  2  0  0  0  0  0  0  0  0  0
    0.6926   -3.9407    0.6225 C   0  0  0  0  0  0  0  0  0  0  0  0
    3.4779    2.5837   -1.7806 C   0  0  0  0  0  0  0  0  0  0  0  0
   -4.2330   -3.1216   -0.5266 C   0  0  0  0  0  0  0  0  0  0  0  0
    2.8392   -1.1565    0.7901 C   0  0  0  0  0  0  0  0  0  0  0  0
   -3.3018    1.3223   -0.0507 C   0  0  0  0  0  0  0  0  0  0  0  0
   -5.6766   -3.2303   -0.0478 C   0  0  0  0  0  0  0  0  0  0  0  0
   -4.0394    2.2144   -1.0028 C   0  0  0  0  0  0  0  0  0  0  0  0
    4.1467   -1.0906    0.0988 C   0  0  0  0  0  0  0  0  0  0  0  0
   -6.4587   -1.9624   -0.2900 C   0  0  0  0  0  0  0  0  0  0  0  0
    5.2649   -0.9096    0.8157 C   0  0  0  0  0  0  0  0  0  0  0  0
   -6.4905   -0.9655    0.6852 C   0  0  0  0  0  0  0  0  0  0  0  0
   -7.1490   -1.7870   -1.4894 C   0  0  0  0  0  0  0  0  0  0  0  0
   -7.2125    0.2068    0.4610 C   0  0  0  0  0  0  0  0  0  0  0  0
   -7.8711   -0.6148   -1.7135 C   0  0  0  0  0  0  0  0  0  0  0  0
    6.6200   -0.8176    0.2439 C   0  0  0  0  0  0  0  0  0  0  0  0
   -7.9028    0.3822   -0.7384 C   0  0  0  0  0  0  0  0  0  0  0  0
    7.7342   -1.0457    1.0514 C   0  0  0  0  0  0  0  0  0  0  0  0
    6.7886   -0.5022   -1.1044 C   0  0  0  0  0  0  0  0  0  0  0  0
    9.0171   -0.9586    0.5108 C   0  0  0  0  0  0  0  0  0  0  0  0
    8.0715   -0.4149   -1.6450 C   0  0  0  0  0  0  0  0  0  0  0  0
    9.1858   -0.6432   -0.8375 C   0  0  0  0  0  0  0  0  0  0  0  0
   -8.2754    1.0998    2.3918 C   0  0  0  0  0  0  0  0  0  0  0  0
   -0.1134   -0.2648   -1.3430 H   0  0  0  0  0  0  0  0  0  0  0  0
    0.4933   -1.3329    1.4260 H   0  0  0  0  0  0  0  0  0  0  0  0
   -1.9326   -0.3187    1.1121 H   0  0  0  0  0  0  0  0  0  0  0  0
   -0.0022   -2.9468   -1.1378 H   0  0  0  0  0  0  0  0  0  0  0  0
   -0.8106    1.8701   -1.2706 H   0  0  0  0  0  0  0  0  0  0  0  0
   -2.1878   -2.0516   -1.3894 H   0  0  0  0  0  0  0  0  0  0  0  0
   -1.0767    3.1848    0.9050 H   0  0  0  0  0  0  0  0  0  0  0  0
    1.2076    3.0564    1.7881 H   0  0  0  0  0  0  0  0  0  0  0  0
    2.1065    4.6726   -0.6509 H   0  0  0  0  0  0  0  0  0  0  0  0
    2.6235    1.6942   -0.0448 H   0  0  0  0  0  0  0  0  0  0  0  0
    0.6200   -3.8667    1.7127 H   0  0  0  0  0  0  0  0  0  0  0  0
    1.7465   -3.9658    0.3305 H   0  0  0  0  0  0  0  0  0  0  0  0
    4.4487    2.7954   -1.3226 H   0  0  0  0  0  0  0  0  0  0  0  0
    3.2620    3.3594   -2.5234 H   0  0  0  0  0  0  0  0  0  0  0  0
    3.5515    1.6367   -2.3265 H   0  0  0  0  0  0  0  0  0  0  0  0
   -1.4576    4.0295   -1.1560 H   0  0  0  0  0  0  0  0  0  0  0  0
    0.0016    4.9590    2.1289 H   0  0  0  0  0  0  0  0  0  0  0  0
    3.4939    3.3066    1.4262 H   0  0  0  0  0  0  0  0  0  0  0  0
   -4.2154   -2.9553   -1.6108 H   0  0  0  0  0  0  0  0  0  0  0  0
   -3.7072   -4.0582   -0.3081 H   0  0  0  0  0  0  0  0  0  0  0  0
    0.5724   -5.8763    0.6745 H   0  0  0  0  0  0  0  0  0  0  0  0
   -6.1720   -4.0749   -0.5418 H   0  0  0  0  0  0  0  0  0  0  0  0
   -5.6910   -3.4510    1.0273 H   0  0  0  0  0  0  0  0  0  0  0  0
   -3.3348    2.7083   -1.6758 H   0  0  0  0  0  0  0  0  0  0  0  0
   -4.5748    2.9831   -0.4383 H   0  0  0  0  0  0  0  0  0  0  0  0
   -4.7636    1.6263   -1.5717 H   0  0  0  0  0  0  0  0  0  0  0  0
    4.1407   -1.2045   -0.9789 H   0  0  0  0  0  0  0  0  0  0  0  0
   -5.9531   -1.0951    1.6215 H   0  0  0  0  0  0  0  0  0  0  0  0
    5.2124   -0.8242    1.8987 H   0  0  0  0  0  0  0  0  0  0  0  0
   -7.1297   -2.5558   -2.2573 H   0  0  0  0  0  0  0  0  0  0  0  0
   -8.4037   -0.4908   -2.6526 H   0  0  0  0  0  0  0  0  0  0  0  0
    7.6069   -1.2932    2.1032 H   0  0  0  0  0  0  0  0  0  0  0  0
    5.9518   -0.2960   -1.7652 H   0  0  0  0  0  0  0  0  0  0  0  0
   -9.0218    1.4681   -1.8487 H   0  0  0  0  0  0  0  0  0  0  0  0
    8.1892   -0.1636   -2.6958 H   0  0  0  0  0  0  0  0  0  0  0  0
   -8.1619    1.9414    3.0805 H   0  0  0  0  0  0  0  0  0  0  0  0
   -8.2017    0.1683    2.9621 H   0  0  0  0  0  0  0  0  0  0  0  0
   -9.2565    1.1701    1.9117 H   0  0  0  0  0  0  0  0  0  0  0  0
    9.7902   -1.3880    2.2092 H   0  0  0  0  0  0  0  0  0  0  0  0
   10.3551   -0.3282   -2.3203 H   0  0  0  0  0  0  0  0  0  0  0  0
  1 17  1  0  0  0  0
  1 21  1  0  0  0  0
  2 20  1  0  0  0  0
  2 22  1  0  0  0  0
  3 21  1  0  0  0  0
  3 26  1  0  0  0  0
  4 18  1  0  0  0  0
  4 30  1  0  0  0  0
  5 19  1  0  0  0  0
  5 31  1  0  0  0  0
  6 22  1  0  0  0  0
  6 29  1  0  0  0  0
  7 23  1  0  0  0  0
  7 64  1  0  0  0  0
  8 24  1  0  0  0  0
  8 65  1  0  0  0  0
  9 25  1  0  0  0  0
  9 66  1  0  0  0  0
 10 27  1  0  0  0  0
 10 69  1  0  0  0  0
 11 30  2  0  0  0  0
 12 31  2  0  0  0  0
 13 39  1  0  0  0  0
 13 48  1  0  0  0  0
 14 42  1  0  0  0  0
 14 82  1  0  0  0  0
 15 45  1  0  0  0  0
 15 87  1  0  0  0  0
 16 47  1  0  0  0  0
 16 88  1  0  0  0  0
 17 18  1  0  0  0  0
 17 19  1  0  0  0  0
 17 49  1  0  0  0  0
 18 20  1  0  0  0  0
 18 50  1  0  0  0  0
 19 22  1  0  0  0  0
 19 51  1  0  0  0  0
 20 27  1  0  0  0  0
 20 52  1  0  0  0  0
 21 23  1  0  0  0  0
 21 53  1  0  0  0  0
 22 54  1  0  0  0  0
 23 24  1  0  0  0  0
 23 55  1  0  0  0  0
 24 25  1  0  0  0  0
 24 56  1  0  0  0  0
 25 26  1  0  0  0  0
 25 57  1  0  0  0  0
 26 28  1  0  0  0  0
 26 58  1  0  0  0  0
 27 59  1  0  0  0  0
 27 60  1  0  0  0  0
 28 61  1  0  0  0  0
 28 62  1  0  0  0  0
 28 63  1  0  0  0  0
 29 32  1  0  0  0  0
 29 67  1  0  0  0  0
 29 68  1  0  0  0  0
 30 34  1  0  0  0  0
 31 33  1  0  0  0  0
 32 35  1  0  0  0  0
 32 70  1  0  0  0  0
 32 71  1  0  0  0  0
 33 72  1  0  0  0  0
 33 73  1  0  0  0  0
 33 74  1  0  0  0  0
 34 36  2  0  0  0  0
 34 75  1  0  0  0  0
 35 37  2  0  0  0  0
 35 38  1  0  0  0  0
 36 41  1  0  0  0  0
 36 77  1  0  0  0  0
 37 39  1  0  0  0  0
 37 76  1  0  0  0  0
 38 40  2  0  0  0  0
 38 78  1  0  0  0  0
 39 42  2  0  0  0  0
 40 42  1  0  0  0  0
 40 79  1  0  0  0  0
 41 43  2  0  0  0  0
 41 44  1  0  0  0  0
 43 45  1  0  0  0  0
 43 80  1  0  0  0  0
 44 46  2  0  0  0  0
 44 81  1  0  0  0  0
 45 47  2  0  0  0  0
 46 47  1  0  0  0  0
 46 83  1  0  0  0  0
 48 84  1  0  0  0  0
 48 85  1  0  0  0  0
 48 86  1  0  0  0  0
M  END
> <PUBCHEM_COMPOUND_CID>
102403918

> <PUBCHEM_CONFORMER_RMSD>
1.4

> <PUBCHEM_CONFORMER_DIVERSEORDER>
1
31
41
49
23
24
32
45
20
27
19
46
33
44
37
34
6
38
29
30
26
50
39
9
43
17
15
25
3
28
21
22
47
40
18
11
42
36
16
10
35
14
48
7
5
4
12
13
8
2

> <PUBCHEM_MMFF94_PARTIAL_CHARGES>
62
1 -0.56
10 -0.68
11 -0.57
12 -0.57
13 -0.36
14 -0.53
15 -0.53
16 -0.53
17 0.28
18 0.28
19 0.28
2 -0.56
20 0.28
21 0.56
22 0.56
23 0.28
24 0.28
25 0.28
26 0.28
27 0.28
29 0.28
3 -0.56
30 0.71
31 0.66
32 0.14
33 0.06
34 -0.14
35 -0.14
36 -0.18
37 -0.15
38 -0.15
39 0.08
4 -0.43
40 -0.15
41 0.03
42 0.08
43 -0.15
44 -0.15
45 0.08
46 -0.15
47 0.08
48 0.28
5 -0.43
6 -0.56
64 0.4
65 0.4
66 0.4
69 0.4
7 -0.68
75 0.15
76 0.15
77 0.15
78 0.15
79 0.15
8 -0.68
80 0.15
81 0.15
82 0.45
83 0.15
87 0.45
88 0.45
9 -0.68

> <PUBCHEM_EFFECTIVE_ROTOR_COUNT>
16.4

> <PUBCHEM_PHARMACOPHORE_FEATURES>
22
1 1 acceptor
1 10 acceptor
1 10 donor
1 11 acceptor
1 12 acceptor
1 13 acceptor
1 14 donor
1 15 donor
1 16 donor
1 2 acceptor
1 3 acceptor
1 6 acceptor
1 7 acceptor
1 7 donor
1 8 acceptor
1 8 donor
1 9 acceptor
1 9 donor
6 2 17 18 19 20 22 rings
6 3 21 23 24 25 26 rings
6 35 37 38 39 40 42 rings
6 41 43 44 45 46 47 rings

> <PUBCHEM_HEAVY_ATOM_COUNT>
48

> <PUBCHEM_ATOM_DEF_STEREO_COUNT>
10

> <PUBCHEM_ATOM_UDEF_STEREO_COUNT>
0

> <PUBCHEM_BOND_DEF_STEREO_COUNT>
1

> <PUBCHEM_BOND_UDEF_STEREO_COUNT>
0

> <PUBCHEM_ISOTOPIC_ATOM_COUNT>
0

> <PUBCHEM_COMPONENT_COUNT>
1

> <PUBCHEM_CACTVS_TAUTO_COUNT>
140

> <PUBCHEM_CONFORMER_ID>
061A8F4E00000001

> <PUBCHEM_MMFF94_ENERGY>
140.004

> <PUBCHEM_FEATURE_SELFOVERLAP>
111.774

> <PUBCHEM_SHAPE_FINGERPRINT>
13811026 1 18413666929373834116
14068700 675 18272650198987030523
14117953 113 18412259549462448095
14395042 24 18260542313102942536
14937079 2 18337951307131509904
15131766 46 15551883452334668136
16087824 20 18336824200517795933
16112460 7 18411140281807588513
22311459 1 18409443674873014315
24771293 8 18272655601992604731
249057 3 18410574011322584462
350125 39 18335699472957625077
484989 97 18334575788942735671
9961470 85 18124307465705832400

> <PUBCHEM_SHAPE_MULTIPOLES>
893.91
28.34
5.46
1.5
24.38
3.11
0.13
-10.78
-2.71
-0.77
0.82
-0.38
0.55
-1.63

> <PUBCHEM_SHAPE_SELFOVERLAP>
1885.957

> <PUBCHEM_SHAPE_VOLUME>
495.3

> <PUBCHEM_COORDINATE_TYPE>
2
5
10

$$$$
