102403917
  -OEChem-02172602573D

 84 87  0     1  0  0  0  0  0999 V2000
   -0.1491    0.9724    0.4371 O   0  0  0  0  0  0  0  0  0  0  0  0
   -1.7951   -2.7901    0.4213 O   0  0  0  0  0  0  0  0  0  0  0  0
    0.8318    2.2389   -1.3137 O   0  0  0  0  0  0  0  0  0  0  0  0
    1.5112   -1.3207   -0.1463 O   0  0  0  0  0  0  0  0  0  0  0  0
   -2.8829    0.5518   -0.5778 O   0  0  0  0  0  0  0  0  0  0  0  0
   -3.9567   -1.9240    0.2739 O   0  0  0  0  0  0  0  0  0  0  0  0
   -0.8971    4.3950   -0.5249 O   0  0  0  0  0  0  0  0  0  0  0  0
    0.5849    5.0311    1.7430 O   0  0  0  0  0  0  0  0  0  0  0  0
    3.1351    4.0377    0.9332 O   0  0  0  0  0  0  0  0  0  0  0  0
   -0.3391   -5.1107    0.1974 O   0  0  0  0  0  0  0  0  0  0  0  0
    2.3679   -1.1031    1.9882 O   0  0  0  0  0  0  0  0  0  0  0  0
   -3.6614    1.4872    1.3858 O   0  0  0  0  0  0  0  0  0  0  0  0
   -8.9372    1.7598   -0.5892 O   0  0  0  0  0  0  0  0  0  0  0  0
    9.7710   -1.3489    1.0966 O   0  0  0  0  0  0  0  0  0  0  0  0
   10.0463   -0.6605   -1.5826 O   0  0  0  0  0  0  0  0  0  0  0  0
   -0.6369   -0.2279   -0.1642 C   0  0  1  0  0  0  0  0  0  0  0  0
    0.1875   -1.3964    0.3762 C   0  0  1  0  0  0  0  0  0  0  0  0
   -2.1198   -0.3969    0.1672 C   0  0  2  0  0  0  0  0  0  0  0  0
   -0.4389   -2.7342   -0.0242 C   0  0  1  0  0  0  0  0  0  0  0  0
   -0.2899    2.0870   -0.4371 C   0  0  2  0  0  0  0  0  0  0  0  0
   -2.6139   -1.7979   -0.1932 C   0  0  1  0  0  0  0  0  0  0  0  0
   -0.5112    3.3588    0.3796 C   0  0  1  0  0  0  0  0  0  0  0  0
    0.7653    3.7615    1.1199 C   0  0  1  0  0  0  0  0  0  0  0  0
    1.9540    3.8355    0.1610 C   0  0  2  0  0  0  0  0  0  0  0  0
    2.0628    2.5341   -0.6457 C   0  0  2  0  0  0  0  0  0  0  0  0
    0.2997   -3.9133    0.6012 C   0  0  0  0  0  0  0  0  0  0  0  0
    3.1441    2.6155   -1.7195 C   0  0  0  0  0  0  0  0  0  0  0  0
   -4.6383   -2.9750   -0.3927 C   0  0  0  0  0  0  0  0  0  0  0  0
    2.5031   -1.1743    0.7770 C   0  0  0  0  0  0  0  0  0  0  0  0
   -3.6096    1.4379    0.1643 C   0  0  0  0  0  0  0  0  0  0  0  0
   -6.0704   -3.0687    0.1226 C   0  0  0  0  0  0  0  0  0  0  0  0
   -4.3552    2.3666   -0.7455 C   0  0  0  0  0  0  0  0  0  0  0  0
    3.7926   -1.1157    0.0519 C   0  0  0  0  0  0  0  0  0  0  0  0
   -6.8342   -1.7809   -0.0675 C   0  0  0  0  0  0  0  0  0  0  0  0
    4.9329   -0.9731    0.7421 C   0  0  0  0  0  0  0  0  0  0  0  0
   -6.8213   -0.8081    0.9322 C   0  0  0  0  0  0  0  0  0  0  0  0
   -7.5537   -1.5637   -1.2426 C   0  0  0  0  0  0  0  0  0  0  0  0
   -7.5277    0.3817    0.7566 C   0  0  0  0  0  0  0  0  0  0  0  0
   -8.2605   -0.3739   -1.4180 C   0  0  0  0  0  0  0  0  0  0  0  0
    6.2736   -0.8922    0.1358 C   0  0  0  0  0  0  0  0  0  0  0  0
   -8.2474    0.5988   -0.4184 C   0  0  0  0  0  0  0  0  0  0  0  0
    7.4046   -1.1608    0.9069 C   0  0  0  0  0  0  0  0  0  0  0  0
    6.4120   -0.5470   -1.2086 C   0  0  0  0  0  0  0  0  0  0  0  0
    8.6739   -1.0842    0.3335 C   0  0  0  0  0  0  0  0  0  0  0  0
    7.6813   -0.4702   -1.7818 C   0  0  0  0  0  0  0  0  0  0  0  0
    8.8123   -0.7389   -1.0109 C   0  0  0  0  0  0  0  0  0  0  0  0
   -0.4881   -0.1759   -1.2526 H   0  0  0  0  0  0  0  0  0  0  0  0
    0.1722   -1.3228    1.4723 H   0  0  0  0  0  0  0  0  0  0  0  0
   -2.2413   -0.2564    1.2494 H   0  0  0  0  0  0  0  0  0  0  0  0
   -0.4229   -2.8638   -1.1150 H   0  0  0  0  0  0  0  0  0  0  0  0
   -1.1420    1.9692   -1.1098 H   0  0  0  0  0  0  0  0  0  0  0  0
   -2.5970   -1.9222   -1.2852 H   0  0  0  0  0  0  0  0  0  0  0  0
   -1.3242    3.2348    1.1033 H   0  0  0  0  0  0  0  0  0  0  0  0
    0.9801    3.0423    1.9202 H   0  0  0  0  0  0  0  0  0  0  0  0
    1.8439    4.7010   -0.5028 H   0  0  0  0  0  0  0  0  0  0  0  0
    2.3198    1.6995    0.0170 H   0  0  0  0  0  0  0  0  0  0  0  0
    0.2579   -3.8648    1.6945 H   0  0  0  0  0  0  0  0  0  0  0  0
    1.3447   -3.9507    0.2800 H   0  0  0  0  0  0  0  0  0  0  0  0
    2.9232    3.4130   -2.4374 H   0  0  0  0  0  0  0  0  0  0  0  0
    3.1848    1.6809   -2.2899 H   0  0  0  0  0  0  0  0  0  0  0  0
    4.1307    2.7978   -1.2833 H   0  0  0  0  0  0  0  0  0  0  0  0
   -1.7442    4.1368   -0.9255 H   0  0  0  0  0  0  0  0  0  0  0  0
   -0.1795    4.9580    2.3396 H   0  0  0  0  0  0  0  0  0  0  0  0
    3.2602    3.2589    1.5020 H   0  0  0  0  0  0  0  0  0  0  0  0
   -4.6467   -2.7825   -1.4727 H   0  0  0  0  0  0  0  0  0  0  0  0
   -4.1250   -3.9262   -0.2113 H   0  0  0  0  0  0  0  0  0  0  0  0
    0.1438   -5.8470    0.6099 H   0  0  0  0  0  0  0  0  0  0  0  0
   -6.5950   -3.8916   -0.3777 H   0  0  0  0  0  0  0  0  0  0  0  0
   -6.0600   -3.3152    1.1922 H   0  0  0  0  0  0  0  0  0  0  0  0
   -5.1073    1.8067   -1.3067 H   0  0  0  0  0  0  0  0  0  0  0  0
   -4.8580    3.1327   -0.1486 H   0  0  0  0  0  0  0  0  0  0  0  0
   -3.6598    2.8617   -1.4272 H   0  0  0  0  0  0  0  0  0  0  0  0
    3.7554   -1.2029   -1.0277 H   0  0  0  0  0  0  0  0  0  0  0  0
    4.9112   -0.9134    1.8278 H   0  0  0  0  0  0  0  0  0  0  0  0
   -6.2641   -0.9638    1.8522 H   0  0  0  0  0  0  0  0  0  0  0  0
   -7.5697   -2.3135   -2.0291 H   0  0  0  0  0  0  0  0  0  0  0  0
   -7.5123    1.1364    1.5382 H   0  0  0  0  0  0  0  0  0  0  0  0
   -8.8167   -0.2167   -2.3382 H   0  0  0  0  0  0  0  0  0  0  0  0
    7.3008   -1.4316    1.9555 H   0  0  0  0  0  0  0  0  0  0  0  0
    5.5618   -0.3091   -1.8411 H   0  0  0  0  0  0  0  0  0  0  0  0
    7.7755   -0.1955   -2.8291 H   0  0  0  0  0  0  0  0  0  0  0  0
   -9.3751    1.7411   -1.4575 H   0  0  0  0  0  0  0  0  0  0  0  0
    9.4840   -1.5694    1.9994 H   0  0  0  0  0  0  0  0  0  0  0  0
    9.9471   -0.4093   -2.5170 H   0  0  0  0  0  0  0  0  0  0  0  0
  1 16  1  0  0  0  0
  1 20  1  0  0  0  0
  2 19  1  0  0  0  0
  2 21  1  0  0  0  0
  3 20  1  0  0  0  0
  3 25  1  0  0  0  0
  4 17  1  0  0  0  0
  4 29  1  0  0  0  0
  5 18  1  0  0  0  0
  5 30  1  0  0  0  0
  6 21  1  0  0  0  0
  6 28  1  0  0  0  0
  7 22  1  0  0  0  0
  7 62  1  0  0  0  0
  8 23  1  0  0  0  0
  8 63  1  0  0  0  0
  9 24  1  0  0  0  0
  9 64  1  0  0  0  0
 10 26  1  0  0  0  0
 10 67  1  0  0  0  0
 11 29  2  0  0  0  0
 12 30  2  0  0  0  0
 13 41  1  0  0  0  0
 13 82  1  0  0  0  0
 14 44  1  0  0  0  0
 14 83  1  0  0  0  0
 15 46  1  0  0  0  0
 15 84  1  0  0  0  0
 16 17  1  0  0  0  0
 16 18  1  0  0  0  0
 16 47  1  0  0  0  0
 17 19  1  0  0  0  0
 17 48  1  0  0  0  0
 18 21  1  0  0  0  0
 18 49  1  0  0  0  0
 19 26  1  0  0  0  0
 19 50  1  0  0  0  0
 20 22  1  0  0  0  0
 20 51  1  0  0  0  0
 21 52  1  0  0  0  0
 22 23  1  0  0  0  0
 22 53  1  0  0  0  0
 23 24  1  0  0  0  0
 23 54  1  0  0  0  0
 24 25  1  0  0  0  0
 24 55  1  0  0  0  0
 25 27  1  0  0  0  0
 25 56  1  0  0  0  0
 26 57  1  0  0  0  0
 26 58  1  0  0  0  0
 27 59  1  0  0  0  0
 27 60  1  0  0  0  0
 27 61  1  0  0  0  0
 28 31  1  0  0  0  0
 28 65  1  0  0  0  0
 28 66  1  0  0  0  0
 29 33  1  0  0  0  0
 30 32  1  0  0  0  0
 31 34  1  0  0  0  0
 31 68  1  0  0  0  0
 31 69  1  0  0  0  0
 32 70  1  0  0  0  0
 32 71  1  0  0  0  0
 32 72  1  0  0  0  0
 33 35  2  0  0  0  0
 33 73  1  0  0  0  0
 34 36  2  0  0  0  0
 34 37  1  0  0  0  0
 35 40  1  0  0  0  0
 35 74  1  0  0  0  0
 36 38  1  0  0  0  0
 36 75  1  0  0  0  0
 37 39  2  0  0  0  0
 37 76  1  0  0  0  0
 38 41  2  0  0  0  0
 38 77  1  0  0  0  0
 39 41  1  0  0  0  0
 39 78  1  0  0  0  0
 40 42  2  0  0  0  0
 40 43  1  0  0  0  0
 42 44  1  0  0  0  0
 42 79  1  0  0  0  0
 43 45  2  0  0  0  0
 43 80  1  0  0  0  0
 44 46  2  0  0  0  0
 45 46  1  0  0  0  0
 45 81  1  0  0  0  0
M  END
> <PUBCHEM_COMPOUND_CID>
102403917

> <PUBCHEM_CONFORMER_RMSD>
1.4

> <PUBCHEM_CONFORMER_DIVERSEORDER>
1
21
12
26
23
15
27
35
9
11
34
24
22
29
17
10
16
30
31
28
36
19
33
2
7
18
13
20
32
8
3
5
4
25
14
6

> <PUBCHEM_MMFF94_PARTIAL_CHARGES>
61
1 -0.56
10 -0.68
11 -0.57
12 -0.57
13 -0.53
14 -0.53
15 -0.53
16 0.28
17 0.28
18 0.28
19 0.28
2 -0.56
20 0.56
21 0.56
22 0.28
23 0.28
24 0.28
25 0.28
26 0.28
28 0.28
29 0.71
3 -0.56
30 0.66
31 0.14
32 0.06
33 -0.14
34 -0.14
35 -0.18
36 -0.15
37 -0.15
38 -0.15
39 -0.15
4 -0.43
40 0.03
41 0.08
42 -0.15
43 -0.15
44 0.08
45 -0.15
46 0.08
5 -0.43
6 -0.56
62 0.4
63 0.4
64 0.4
67 0.4
7 -0.68
73 0.15
74 0.15
75 0.15
76 0.15
77 0.15
78 0.15
79 0.15
8 -0.68
80 0.15
81 0.15
82 0.45
83 0.45
84 0.45
9 -0.68

> <PUBCHEM_EFFECTIVE_ROTOR_COUNT>
15.4

> <PUBCHEM_PHARMACOPHORE_FEATURES>
21
1 1 acceptor
1 10 acceptor
1 10 donor
1 11 acceptor
1 12 acceptor
1 13 donor
1 14 donor
1 15 donor
1 2 acceptor
1 3 acceptor
1 6 acceptor
1 7 acceptor
1 7 donor
1 8 acceptor
1 8 donor
1 9 acceptor
1 9 donor
6 2 16 17 18 19 21 rings
6 3 20 22 23 24 25 rings
6 34 36 37 38 39 41 rings
6 40 42 43 44 45 46 rings

> <PUBCHEM_HEAVY_ATOM_COUNT>
46

> <PUBCHEM_ATOM_DEF_STEREO_COUNT>
10

> <PUBCHEM_ATOM_UDEF_STEREO_COUNT>
0

> <PUBCHEM_BOND_DEF_STEREO_COUNT>
1

> <PUBCHEM_BOND_UDEF_STEREO_COUNT>
0

> <PUBCHEM_ISOTOPIC_ATOM_COUNT>
0

> <PUBCHEM_COMPONENT_COUNT>
1

> <PUBCHEM_CACTVS_TAUTO_COUNT>
112

> <PUBCHEM_CONFORMER_ID>
061A8F4D00000001

> <PUBCHEM_MMFF94_ENERGY>
123.8187

> <PUBCHEM_FEATURE_SELFOVERLAP>
106.696

> <PUBCHEM_SHAPE_FINGERPRINT>
10050765 1 17978790434918267699
13811026 1 18413668024474501948
14068700 675 18201156650277453003
14117953 113 18413106169200002559
14395042 24 18260542308697088632
14937079 2 18338513157314717216
16087824 20 18337389345336700893
16991971 28 18343306959234256708
22311459 1 18409726258083286147
24771293 8 18200882772918443427
249057 3 18411138064760905854
350125 39 18335982047598996165
4144715 1 17972601262749078659
484989 97 18335139834313212545
9961470 85 18124590040194099425

> <PUBCHEM_SHAPE_MULTIPOLES>
858.62
26.88
5.6
1.33
18.57
3.91
-0.11
-13.49
-7.14
-1.27
1.28
1.22
0.46
-0.36

> <PUBCHEM_SHAPE_SELFOVERLAP>
1813.721

> <PUBCHEM_SHAPE_VOLUME>
474.4

> <PUBCHEM_COORDINATE_TYPE>
2
5
10

$$$$
