10482829
  -OEChem-02172602373D

 64 66  0     1  0  0  0  0  0999 V2000
    4.5027   -1.0608    1.3781 O   0  0  0  0  0  0  0  0  0  0  0  0
    6.2479    2.1712    1.5305 O   0  0  0  0  0  0  0  0  0  0  0  0
   -4.0838   -1.2896    0.1757 O   0  0  0  0  0  0  0  0  0  0  0  0
    4.6534    1.2901    3.9664 O   0  0  0  0  0  0  0  0  0  0  0  0
    3.1662    2.3773   -2.6755 O   0  0  0  0  0  0  0  0  0  0  0  0
    5.6491   -0.7529    3.8768 O   0  0  0  0  0  0  0  0  0  0  0  0
    4.8345    1.0832   -4.4825 O   0  0  0  0  0  0  0  0  0  0  0  0
    4.1169   -1.9016   -1.2429 O   0  0  0  0  0  0  0  0  0  0  0  0
   -6.5519   -3.3562   -1.2493 O   0  0  0  0  0  0  0  0  0  0  0  0
   -4.7778    3.7539    1.4849 O   0  0  0  0  0  0  0  0  0  0  0  0
   -6.6885    4.7548   -0.2674 O   0  0  0  0  0  0  0  0  0  0  0  0
   -5.1881   -3.7893    0.5128 O   0  0  0  0  0  0  0  0  0  0  0  0
   -3.3018   -2.6030   -1.5566 O   0  0  0  0  0  0  0  0  0  0  0  0
    5.9356    0.8641    1.0478 C   0  0  1  0  0  0  0  0  0  0  0  0
    4.7676    0.2570    1.8404 C   0  0  2  0  0  0  0  0  0  0  0  0
    5.6373    0.9249   -0.4363 C   0  0  0  0  0  0  0  0  0  0  0  0
   -6.3764   -0.7932    0.7160 C   0  0  0  0  0  0  0  0  0  0  0  0
    4.5297    1.6292   -0.8724 C   0  0  0  0  0  0  0  0  0  0  0  0
   -5.4314   -1.4963   -0.2609 C   0  0  2  0  0  0  0  0  0  0  0  0
    6.4792    0.2741   -1.3200 C   0  0  0  0  0  0  0  0  0  0  0  0
   -6.4574    0.6919    0.4549 C   0  0  0  0  0  0  0  0  0  0  0  0
    3.2405   -1.3076    0.9045 C   0  0  0  0  0  0  0  0  0  0  0  0
    5.0756    0.1732    3.3213 C   0  0  0  0  0  0  0  0  0  0  0  0
    4.2547    1.6847   -2.2388 C   0  0  0  0  0  0  0  0  0  0  0  0
    6.2043    0.3295   -2.6862 C   0  0  0  0  0  0  0  0  0  0  0  0
    5.0921    1.0350   -3.1457 C   0  0  0  0  0  0  0  0  0  0  0  0
    3.0545   -1.7277   -0.4082 C   0  0  0  0  0  0  0  0  0  0  0  0
    2.1521   -1.1312    1.7523 C   0  0  0  0  0  0  0  0  0  0  0  0
   -5.5721    1.5429    1.0968 C   0  0  0  0  0  0  0  0  0  0  0  0
    0.6687   -1.7991   -0.0338 C   0  0  0  0  0  0  0  0  0  0  0  0
   -7.4156    1.1758   -0.4213 C   0  0  0  0  0  0  0  0  0  0  0  0
    1.7646   -1.9742   -0.8788 C   0  0  0  0  0  0  0  0  0  0  0  0
    0.8625   -1.3776    1.2817 C   0  0  0  0  0  0  0  0  0  0  0  0
   -5.6840   -2.9904   -0.2707 C   0  0  0  0  0  0  0  0  0  0  0  0
   -5.6472    2.9148    0.8561 C   0  0  0  0  0  0  0  0  0  0  0  0
   -7.4907    2.5475   -0.6619 C   0  0  0  0  0  0  0  0  0  0  0  0
   -6.6065    3.4171   -0.0234 C   0  0  0  0  0  0  0  0  0  0  0  0
   -0.6762   -2.0568   -0.5237 C   0  0  0  0  0  0  0  0  0  0  0  0
   -3.1269   -1.9052   -0.5704 C   0  0  0  0  0  0  0  0  0  0  0  0
   -1.8132   -1.5798    0.0298 C   0  0  0  0  0  0  0  0  0  0  0  0
    6.8299    0.2474    1.2069 H   0  0  0  0  0  0  0  0  0  0  0  0
    3.8796    0.8980    1.7456 H   0  0  0  0  0  0  0  0  0  0  0  0
   -6.0541   -0.9621    1.7522 H   0  0  0  0  0  0  0  0  0  0  0  0
   -7.3861   -1.2189    0.6446 H   0  0  0  0  0  0  0  0  0  0  0  0
   -5.5333   -1.1020   -1.2802 H   0  0  0  0  0  0  0  0  0  0  0  0
    3.8778    2.1494   -0.1766 H   0  0  0  0  0  0  0  0  0  0  0  0
    7.3473   -0.2792   -0.9746 H   0  0  0  0  0  0  0  0  0  0  0  0
    6.5649    2.0832    2.4451 H   0  0  0  0  0  0  0  0  0  0  0  0
    6.8644   -0.1819   -3.3816 H   0  0  0  0  0  0  0  0  0  0  0  0
    2.2885   -0.8181    2.7834 H   0  0  0  0  0  0  0  0  0  0  0  0
   -4.8254    1.1478    1.7806 H   0  0  0  0  0  0  0  0  0  0  0  0
   -8.1066    0.5060   -0.9249 H   0  0  0  0  0  0  0  0  0  0  0  0
    1.6187   -2.3011   -1.9063 H   0  0  0  0  0  0  0  0  0  0  0  0
    0.0421   -1.2494    1.9818 H   0  0  0  0  0  0  0  0  0  0  0  0
   -8.2423    2.9254   -1.3500 H   0  0  0  0  0  0  0  0  0  0  0  0
   -0.7380   -2.6774   -1.4153 H   0  0  0  0  0  0  0  0  0  0  0  0
   -1.8180   -0.9358    0.9019 H   0  0  0  0  0  0  0  0  0  0  0  0
    4.8573    1.2579    4.9253 H   0  0  0  0  0  0  0  0  0  0  0  0
    3.1290    2.3089   -3.6454 H   0  0  0  0  0  0  0  0  0  0  0  0
    5.5180    0.5777   -4.9550 H   0  0  0  0  0  0  0  0  0  0  0  0
    3.7928   -2.1827   -2.1157 H   0  0  0  0  0  0  0  0  0  0  0  0
   -6.7194   -4.3228   -1.2467 H   0  0  0  0  0  0  0  0  0  0  0  0
   -4.1870    3.2306    2.0533 H   0  0  0  0  0  0  0  0  0  0  0  0
   -7.4089    4.9176   -0.9004 H   0  0  0  0  0  0  0  0  0  0  0  0
  1 15  1  0  0  0  0
  1 22  1  0  0  0  0
  2 14  1  0  0  0  0
  2 48  1  0  0  0  0
  3 19  1  0  0  0  0
  3 39  1  0  0  0  0
  4 23  1  0  0  0  0
  4 58  1  0  0  0  0
  5 24  1  0  0  0  0
  5 59  1  0  0  0  0
  6 23  2  0  0  0  0
  7 26  1  0  0  0  0
  7 60  1  0  0  0  0
  8 27  1  0  0  0  0
  8 61  1  0  0  0  0
  9 34  1  0  0  0  0
  9 62  1  0  0  0  0
 10 35  1  0  0  0  0
 10 63  1  0  0  0  0
 11 37  1  0  0  0  0
 11 64  1  0  0  0  0
 12 34  2  0  0  0  0
 13 39  2  0  0  0  0
 14 15  1  0  0  0  0
 14 16  1  0  0  0  0
 14 41  1  0  0  0  0
 15 23  1  0  0  0  0
 15 42  1  0  0  0  0
 16 18  2  0  0  0  0
 16 20  1  0  0  0  0
 17 19  1  0  0  0  0
 17 21  1  0  0  0  0
 17 43  1  0  0  0  0
 17 44  1  0  0  0  0
 18 24  1  0  0  0  0
 18 46  1  0  0  0  0
 19 34  1  0  0  0  0
 19 45  1  0  0  0  0
 20 25  2  0  0  0  0
 20 47  1  0  0  0  0
 21 29  2  0  0  0  0
 21 31  1  0  0  0  0
 22 27  2  0  0  0  0
 22 28  1  0  0  0  0
 24 26  2  0  0  0  0
 25 26  1  0  0  0  0
 25 49  1  0  0  0  0
 27 32  1  0  0  0  0
 28 33  2  0  0  0  0
 28 50  1  0  0  0  0
 29 35  1  0  0  0  0
 29 51  1  0  0  0  0
 30 32  2  0  0  0  0
 30 33  1  0  0  0  0
 30 38  1  0  0  0  0
 31 36  2  0  0  0  0
 31 52  1  0  0  0  0
 32 53  1  0  0  0  0
 33 54  1  0  0  0  0
 35 37  2  0  0  0  0
 36 37  1  0  0  0  0
 36 55  1  0  0  0  0
 38 40  2  0  0  0  0
 38 56  1  0  0  0  0
 39 40  1  0  0  0  0
 40 57  1  0  0  0  0
M  END
> <PUBCHEM_COMPOUND_CID>
10482829

> <PUBCHEM_CONFORMER_RMSD>
1.4

> <PUBCHEM_CONFORMER_DIVERSEORDER>
1
117
64
266
207
381
175
79
225
317
276
302
195
73
495
194
27
220
339
104
442
98
401
61
182
71
388
448
282
472
261
72
360
81
51
208
85
232
441
60
143
183
83
316
358
400
62
88
63
382
128
251
375
45
467
58
160
145
287
236
368
186
296
196
67
272
21
184
119
164
44
124
189
154
76
100
56
106
331
74
39
57
486
385
87
482
136
22
43
92
162
227
420
344
25
171
156
99
437
78
461
451
284
96
273
148
42
240
329
114
133
321
308
77
285
503
115
23
168
245
49
9
433
159
97
46
169
328
28
458
41
362
478
94
16
82
151
40
354
66
19
89
11
165
4
351
297
113
20
260
125
444
59
121
337
26
65
241
95
2
18
6
8
130
10
3
31
36
54
37
35
12
13
7

> <PUBCHEM_MMFF94_PARTIAL_CHARGES>
59
1 -0.36
10 -0.53
11 -0.53
12 -0.57
13 -0.57
14 0.42
15 0.34
16 -0.14
17 0.14
18 -0.15
19 0.34
2 -0.68
20 -0.15
21 -0.14
22 0.08
23 0.66
24 0.08
25 -0.15
26 0.08
27 0.08
28 -0.15
29 -0.15
3 -0.43
30 0.03
31 -0.15
32 -0.15
33 -0.15
34 0.66
35 0.08
36 -0.15
37 0.08
38 -0.18
39 0.71
4 -0.65
40 -0.14
46 0.15
47 0.15
48 0.4
49 0.15
5 -0.53
50 0.15
51 0.15
52 0.15
53 0.15
54 0.15
55 0.15
56 0.15
57 0.15
58 0.5
59 0.45
6 -0.57
60 0.45
61 0.45
62 0.5
63 0.45
64 0.45
7 -0.53
8 -0.53
9 -0.65

> <PUBCHEM_EFFECTIVE_ROTOR_COUNT>
12

> <PUBCHEM_PHARMACOPHORE_FEATURES>
18
1 1 acceptor
1 10 donor
1 11 donor
1 12 acceptor
1 13 acceptor
1 2 acceptor
1 2 donor
1 4 acceptor
1 5 donor
1 6 acceptor
1 7 donor
1 8 donor
1 9 acceptor
3 4 6 23 anion
3 9 12 34 anion
6 16 18 20 24 25 26 rings
6 21 29 31 35 36 37 rings
6 22 27 28 30 32 33 rings

> <PUBCHEM_HEAVY_ATOM_COUNT>
40

> <PUBCHEM_ATOM_DEF_STEREO_COUNT>
3

> <PUBCHEM_ATOM_UDEF_STEREO_COUNT>
0

> <PUBCHEM_BOND_DEF_STEREO_COUNT>
1

> <PUBCHEM_BOND_UDEF_STEREO_COUNT>
0

> <PUBCHEM_ISOTOPIC_ATOM_COUNT>
0

> <PUBCHEM_COMPONENT_COUNT>
1

> <PUBCHEM_CACTVS_TAUTO_COUNT>
414

> <PUBCHEM_CONFORMER_ID>
009FF48D00000001

> <PUBCHEM_MMFF94_ENERGY>
110.2546

> <PUBCHEM_FEATURE_SELFOVERLAP>
91.484

> <PUBCHEM_SHAPE_FINGERPRINT>
10554248 39 15123791785950330051
12440610 7 18273213093359949159
12975358 362 17976554814985352113
13782708 43 9151169857528944943
14294032 229 18408318891351226868
15183329 4 17968375748994026239
15274700 259 17750495314740509741
15328684 2 18187083962166973529
15336146 87 18270396217736108059
15351334 14 17060330842980651927
16096371 109 15719386270202802128
16728433 281 18130242457690485736
19053607 189 18409730630080100291
20691028 202 18266459802979450045
21599406 157 15123501515334375597
22033318 11 17894907382816879424
22122407 14 17968954092094528609
23522609 53 17821739346295578287
23569914 152 15694647047813403045
249057 25 17968365840589136187
44249763 50 17559939043980722891
44555599 121 18040718060882981319
48014 12 18337684053224091245
5911458 16 18187094948651209797

> <PUBCHEM_SHAPE_MULTIPOLES>
746.88
25.37
4.45
3.37
24.55
1.82
-0.52
14.87
0.31
11.58
0.68
-10.75
1.44
-3.64

> <PUBCHEM_SHAPE_SELFOVERLAP>
1614.749

> <PUBCHEM_SHAPE_VOLUME>
406.3

> <PUBCHEM_COORDINATE_TYPE>
2
5
10

$$$$
