13991590
  -OEChem-02172602333D

 56 59  0     1  0  0  0  0  0999 V2000
   -4.4721    1.5698    0.4716 O   0  0  0  0  0  0  0  0  0  0  0  0
    3.4170    0.2631   -1.1928 O   0  0  0  0  0  0  0  0  0  0  0  0
   -3.9778    4.4067    0.9679 O   0  0  0  0  0  0  0  0  0  0  0  0
    4.6840   -1.8270   -3.7264 O   0  0  0  0  0  0  0  0  0  0  0  0
    5.6294    0.9424    3.5275 O   0  0  0  0  0  0  0  0  0  0  0  0
   -6.4118   -4.0701   -0.2026 O   0  0  0  0  0  0  0  0  0  0  0  0
    6.9509   -1.4316    4.1144 O   0  0  0  0  0  0  0  0  0  0  0  0
    3.9889    0.3282   -3.8854 O   0  0  0  0  0  0  0  0  0  0  0  0
   -8.7678   -3.0161    0.8294 O   0  0  0  0  0  0  0  0  0  0  0  0
    1.7938   -0.9961   -2.2497 O   0  0  0  0  0  0  0  0  0  0  0  0
   -2.3610    1.3168   -0.2916 C   0  0  0  0  0  0  0  0  0  0  0  0
   -3.2934    2.2090    0.2277 C   0  0  0  0  0  0  0  0  0  0  0  0
   -1.0775    1.7954   -0.6082 C   0  0  0  0  0  0  0  0  0  0  0  0
   -4.2987    0.2716    0.1110 C   0  0  0  0  0  0  0  0  0  0  0  0
    5.7988   -0.0811   -1.2421 C   0  0  0  0  0  0  0  0  0  0  0  0
   -3.0241    0.0633   -0.3629 C   0  0  0  0  0  0  0  0  0  0  0  0
    4.4351   -0.6133   -1.6875 C   0  0  2  0  0  0  0  0  0  0  0  0
    6.1050   -0.4396    0.1924 C   0  0  0  0  0  0  0  0  0  0  0  0
   -3.0388    3.5597    0.4581 C   0  0  0  0  0  0  0  0  0  0  0  0
   -5.4438   -0.5750    0.2940 C   0  0  0  0  0  0  0  0  0  0  0  0
   -0.7915    3.1497   -0.3875 C   0  0  0  0  0  0  0  0  0  0  0  0
   -1.7563    4.0139    0.1361 C   0  0  0  0  0  0  0  0  0  0  0  0
   -0.0956    0.8761   -1.1489 C   0  0  0  0  0  0  0  0  0  0  0  0
    5.7221    0.4254    1.2049 C   0  0  0  0  0  0  0  0  0  0  0  0
    6.7641   -1.6265    0.4694 C   0  0  0  0  0  0  0  0  0  0  0  0
   -5.3795   -1.9301   -0.0449 C   0  0  0  0  0  0  0  0  0  0  0  0
   -6.6314   -0.0503    0.8132 C   0  0  0  0  0  0  0  0  0  0  0  0
    1.2429    0.9552   -0.9578 C   0  0  0  0  0  0  0  0  0  0  0  0
    4.3314   -0.6259   -3.1994 C   0  0  0  0  0  0  0  0  0  0  0  0
    6.0058    0.0944    2.5298 C   0  0  0  0  0  0  0  0  0  0  0  0
    2.1450   -0.0547   -1.5563 C   0  0  0  0  0  0  0  0  0  0  0  0
    7.0478   -1.9575    1.7943 C   0  0  0  0  0  0  0  0  0  0  0  0
   -6.4917   -2.7525    0.1338 C   0  0  0  0  0  0  0  0  0  0  0  0
    6.6685   -1.0970    2.8246 C   0  0  0  0  0  0  0  0  0  0  0  0
   -7.7438   -0.8726    0.9919 C   0  0  0  0  0  0  0  0  0  0  0  0
   -7.6739   -2.2238    0.6523 C   0  0  0  0  0  0  0  0  0  0  0  0
    5.8435    1.0099   -1.3607 H   0  0  0  0  0  0  0  0  0  0  0  0
    6.5943   -0.4836   -1.8833 H   0  0  0  0  0  0  0  0  0  0  0  0
   -2.6133   -0.8720   -0.7173 H   0  0  0  0  0  0  0  0  0  0  0  0
    4.2463   -1.6228   -1.3002 H   0  0  0  0  0  0  0  0  0  0  0  0
    0.1851    3.5628   -0.6301 H   0  0  0  0  0  0  0  0  0  0  0  0
   -1.5013    5.0598    0.2921 H   0  0  0  0  0  0  0  0  0  0  0  0
   -0.4936    0.0573   -1.7441 H   0  0  0  0  0  0  0  0  0  0  0  0
    5.2051    1.3525    0.9715 H   0  0  0  0  0  0  0  0  0  0  0  0
    7.0612   -2.3039   -0.3261 H   0  0  0  0  0  0  0  0  0  0  0  0
   -4.4698   -2.3667   -0.4509 H   0  0  0  0  0  0  0  0  0  0  0  0
   -6.7260    0.9969    1.0901 H   0  0  0  0  0  0  0  0  0  0  0  0
    1.6911    1.7402   -0.3575 H   0  0  0  0  0  0  0  0  0  0  0  0
    7.5641   -2.8891    2.0097 H   0  0  0  0  0  0  0  0  0  0  0  0
   -8.6621   -0.4550    1.3957 H   0  0  0  0  0  0  0  0  0  0  0  0
   -4.7913    3.8946    1.1196 H   0  0  0  0  0  0  0  0  0  0  0  0
    4.6239   -1.8282   -4.7055 H   0  0  0  0  0  0  0  0  0  0  0  0
    5.1837    1.7135    3.1368 H   0  0  0  0  0  0  0  0  0  0  0  0
   -7.0886   -4.5725    0.2790 H   0  0  0  0  0  0  0  0  0  0  0  0
    7.4114   -2.2882    4.1259 H   0  0  0  0  0  0  0  0  0  0  0  0
   -8.7044   -3.7952    0.2539 H   0  0  0  0  0  0  0  0  0  0  0  0
  1 12  1  0  0  0  0
  1 14  1  0  0  0  0
  2 17  1  0  0  0  0
  2 31  1  0  0  0  0
  3 19  1  0  0  0  0
  3 51  1  0  0  0  0
  4 29  1  0  0  0  0
  4 52  1  0  0  0  0
  5 30  1  0  0  0  0
  5 53  1  0  0  0  0
  6 33  1  0  0  0  0
  6 54  1  0  0  0  0
  7 34  1  0  0  0  0
  7 55  1  0  0  0  0
  8 29  2  0  0  0  0
  9 36  1  0  0  0  0
  9 56  1  0  0  0  0
 10 31  2  0  0  0  0
 11 12  1  0  0  0  0
 11 13  2  0  0  0  0
 11 16  1  0  0  0  0
 12 19  2  0  0  0  0
 13 21  1  0  0  0  0
 13 23  1  0  0  0  0
 14 16  2  0  0  0  0
 14 20  1  0  0  0  0
 15 17  1  0  0  0  0
 15 18  1  0  0  0  0
 15 37  1  0  0  0  0
 15 38  1  0  0  0  0
 16 39  1  0  0  0  0
 17 29  1  0  0  0  0
 17 40  1  0  0  0  0
 18 24  2  0  0  0  0
 18 25  1  0  0  0  0
 19 22  1  0  0  0  0
 20 26  2  0  0  0  0
 20 27  1  0  0  0  0
 21 22  2  0  0  0  0
 21 41  1  0  0  0  0
 22 42  1  0  0  0  0
 23 28  2  0  0  0  0
 23 43  1  0  0  0  0
 24 30  1  0  0  0  0
 24 44  1  0  0  0  0
 25 32  2  0  0  0  0
 25 45  1  0  0  0  0
 26 33  1  0  0  0  0
 26 46  1  0  0  0  0
 27 35  2  0  0  0  0
 27 47  1  0  0  0  0
 28 31  1  0  0  0  0
 28 48  1  0  0  0  0
 30 34  2  0  0  0  0
 32 34  1  0  0  0  0
 32 49  1  0  0  0  0
 33 36  2  0  0  0  0
 35 36  1  0  0  0  0
 35 50  1  0  0  0  0
M  END
> <PUBCHEM_COMPOUND_CID>
13991590

> <PUBCHEM_CONFORMER_RMSD>
1

> <PUBCHEM_CONFORMER_DIVERSEORDER>
1
51
199
240
98
69
241
132
159
252
101
102
92
158
197
163
228
29
262
243
109
87
259
201
65
230
227
61
71
167
19
254
142
161
55
187
185
56
234
104
31
256
73
83
107
88
49
85
28
97
153
220
79
258
204
164
152
188
249
143
171
154
245
35
124
176
223
20
205
62
48
60
237
250
68
47
128
67
33
115
263
22
122
182
239
110
260
246
251
74
21
12
123
184
209
168
244
118
238
253
5
146
144
193
160
75
32
50
191
114
127
81
169
257
82
165
59
86
77
89
78
43
37
255
215
57
58
91
45
183
151
36
94
72
42
170
90
34
44
26
100
66
179
130
54
242
41
175
105
10
95
141
233
203
76
225
216
247
30
156
229
46
236
70
140
174
134
9
235
64
18
120
194
27
25
248
157
186
8
40
52
178
103
3
112
63
80
93
121
173
147
14
126
211
180
39
38
53
208
136
218
138
117
23
137
2
217
166
131
212
198
145
4
111
11
150
7
206
210
231
232
219
149
213
200
135
202
129
84
116
139
6
13
261
125
207
190
177
192
155
196
214
133
162
119
222
15
24
113
106
172
108
221
195
189
148
224
96
17
181
226
99
16

> <PUBCHEM_MMFF94_PARTIAL_CHARGES>
52
1 -0.28
10 -0.57
12 0.14
13 0.03
14 0.09
15 0.14
16 -0.15
17 0.34
18 -0.14
19 0.08
2 -0.43
20 0.05
21 -0.15
22 -0.15
23 -0.18
24 -0.15
25 -0.15
26 -0.15
27 -0.15
28 -0.14
29 0.66
3 -0.53
30 0.08
31 0.71
32 -0.15
33 0.08
34 0.08
35 -0.15
36 0.08
39 0.15
4 -0.65
41 0.15
42 0.15
43 0.15
44 0.15
45 0.15
46 0.15
47 0.15
48 0.15
49 0.15
5 -0.53
50 0.15
51 0.45
52 0.5
53 0.45
54 0.45
55 0.45
56 0.45
6 -0.53
7 -0.53
8 -0.57
9 -0.53

> <PUBCHEM_EFFECTIVE_ROTOR_COUNT>
8

> <PUBCHEM_PHARMACOPHORE_FEATURES>
14
1 1 acceptor
1 10 acceptor
1 3 donor
1 4 acceptor
1 5 donor
1 6 donor
1 7 donor
1 8 acceptor
1 9 donor
3 4 8 29 anion
5 1 11 12 14 16 rings
6 11 12 13 19 21 22 rings
6 18 24 25 30 32 34 rings
6 20 26 27 33 35 36 rings

> <PUBCHEM_HEAVY_ATOM_COUNT>
36

> <PUBCHEM_ATOM_DEF_STEREO_COUNT>
1

> <PUBCHEM_ATOM_UDEF_STEREO_COUNT>
0

> <PUBCHEM_BOND_DEF_STEREO_COUNT>
1

> <PUBCHEM_BOND_UDEF_STEREO_COUNT>
0

> <PUBCHEM_ISOTOPIC_ATOM_COUNT>
0

> <PUBCHEM_COMPONENT_COUNT>
1

> <PUBCHEM_CACTVS_TAUTO_COUNT>
994

> <PUBCHEM_CONFORMER_ID>
00D57EA600000001

> <PUBCHEM_MMFF94_ENERGY>
88.8824

> <PUBCHEM_FEATURE_SELFOVERLAP>
71.218

> <PUBCHEM_SHAPE_FINGERPRINT>
10100884 174 18260266365159390250
10254770 206 18339639057786640151
10319926 262 18270114596646399220
11136131 41 17403170895262509253
11227150 75 17531235159134809988
11386260 185 13840272523906701534
11399510 152 17488751056049522358
11411753 3 17773042960171156804
11478447 62 15647594702682279514
11973863 73 17822300055278527497
1200032 147 12751241428292210652
12120059 9 18201992219454681911
12218070 45 16844434111400578975
12342043 65 17344370877292507012
12758862 56 18339657737057437667
12758862 65 18271811288478617043
13383668 362 17344344708463368935
14068700 675 18261682549326205333
15131766 46 14548438241971816792
15328684 2 18041566840905066192
15392192 104 17416969610954616284
16990366 60 18264210399768026667
16992779 147 15626216936600191682
16993427 108 18187354450553875147
21814621 53 17416977114325733920
22864921 47 18334568049206687031
23569914 152 13625179389011520778
24204213 148 18259988163021455546
255183 313 17418087750193367535
2747138 104 18202293502134551237
3383291 50 18340497763572747695
3504750 166 17679574541887915012
394071 54 15339116811072823036
397830 11 17703791413884824556
406291 66 17822002099673817986
4144715 1 17768814170031615064
4258327 124 12031784773775710093
42767 46 17822291254458463074
4756088 132 17329152880556818355
50009960 94 18125430067906759439
5104073 3 17773040756620382980
5109719 28 17131824392075558632
5874358 3 17240749671702013034
59682541 52 14851604405697877334
6201320 221 17531507837670904595
6636798 310 18041263401855864664
6695519 79 16702295728802876094
6697151 62 15213018237604105308
9555976 147 18119236269445667464
96874 4 17821441357122518514
9962374 69 17313104121506071818
9980921 52 16879046582739748498

> <PUBCHEM_SHAPE_MULTIPOLES>
682.17
26.25
4.09
3.28
6.28
2.16
0.59
-26.2
-13.85
9.74
-1.33
-11.98
-1.14
-2.26

> <PUBCHEM_SHAPE_SELFOVERLAP>
1509.871

> <PUBCHEM_SHAPE_VOLUME>
364.5

> <PUBCHEM_COORDINATE_TYPE>
2
5
10

$$$$
