101183351
  -OEChem-02172602503D

 38 40  0     1  0  0  0  0  0999 V2000
   -0.4233   -0.7050    1.8187 O   0  0  0  0  0  0  0  0  0  0  0  0
    0.4323    1.8449   -0.4249 O   0  0  0  0  0  0  0  0  0  0  0  0
    0.6077    0.5583    0.1449 N   0  0  0  0  0  0  0  0  0  0  0  0
   -2.1585    0.0621   -1.0608 C   0  0  2  0  0  0  0  0  0  0  0  0
   -3.8702   -0.7579    0.1200 C   0  0  2  0  0  0  0  0  0  0  0  0
   -1.8247    0.5118    0.3819 C   0  0  1  0  0  0  0  0  0  0  0  0
   -3.6844    0.2140   -1.0505 C   0  0  0  0  0  0  0  0  0  0  0  0
   -2.9957   -0.0943    1.2082 C   0  0  0  0  0  0  0  0  0  0  0  0
   -2.0837   -1.4472   -1.1463 C   0  0  0  0  0  0  0  0  0  0  0  0
   -3.1071   -1.9376   -0.4321 C   0  0  0  0  0  0  0  0  0  0  0  0
   -0.4780    0.0556    0.8511 C   0  0  0  0  0  0  0  0  0  0  0  0
    1.8247   -0.1752    0.0017 C   0  0  0  0  0  0  0  0  0  0  0  0
    1.9500   -1.4380    0.5805 C   0  0  0  0  0  0  0  0  0  0  0  0
    2.8879    0.3713   -0.7169 C   0  0  0  0  0  0  0  0  0  0  0  0
    0.8475    2.8368    0.5156 C   0  0  0  0  0  0  0  0  0  0  0  0
    3.1387   -2.1545    0.4409 C   0  0  0  0  0  0  0  0  0  0  0  0
    4.0766   -0.3450   -0.8566 C   0  0  0  0  0  0  0  0  0  0  0  0
    0.6580    4.2078   -0.0978 C   0  0  0  0  0  0  0  0  0  0  0  0
    4.2020   -1.6079   -0.2777 C   0  0  0  0  0  0  0  0  0  0  0  0
   -1.6505    0.5922   -1.8674 H   0  0  0  0  0  0  0  0  0  0  0  0
   -4.9048   -0.9642    0.3954 H   0  0  0  0  0  0  0  0  0  0  0  0
   -1.8827    1.6043    0.4656 H   0  0  0  0  0  0  0  0  0  0  0  0
   -4.1641   -0.1223   -1.9787 H   0  0  0  0  0  0  0  0  0  0  0  0
   -4.0185    1.2332   -0.8252 H   0  0  0  0  0  0  0  0  0  0  0  0
   -3.5561    0.7164    1.6900 H   0  0  0  0  0  0  0  0  0  0  0  0
   -2.7142   -0.8083    1.9878 H   0  0  0  0  0  0  0  0  0  0  0  0
   -1.3131   -2.0187   -1.6385 H   0  0  0  0  0  0  0  0  0  0  0  0
   -3.3167   -2.9781   -0.2430 H   0  0  0  0  0  0  0  0  0  0  0  0
    1.1646   -1.9573    1.1109 H   0  0  0  0  0  0  0  0  0  0  0  0
    2.8157    1.3490   -1.1851 H   0  0  0  0  0  0  0  0  0  0  0  0
    0.2452    2.7593    1.4280 H   0  0  0  0  0  0  0  0  0  0  0  0
    1.9017    2.6964    0.7776 H   0  0  0  0  0  0  0  0  0  0  0  0
    3.2341   -3.1427    0.8817 H   0  0  0  0  0  0  0  0  0  0  0  0
    4.9039    0.0792   -1.4181 H   0  0  0  0  0  0  0  0  0  0  0  0
    1.2453    4.3025   -1.0171 H   0  0  0  0  0  0  0  0  0  0  0  0
   -0.3903    4.3653   -0.3721 H   0  0  0  0  0  0  0  0  0  0  0  0
    0.9629    4.9938    0.5987 H   0  0  0  0  0  0  0  0  0  0  0  0
    5.1265   -2.1669   -0.3891 H   0  0  0  0  0  0  0  0  0  0  0  0
  1 11  2  0  0  0  0
  2  3  1  0  0  0  0
  2 15  1  0  0  0  0
  3 11  1  0  0  0  0
  3 12  1  0  0  0  0
  4  6  1  0  0  0  0
  4  7  1  0  0  0  0
  4  9  1  0  0  0  0
  4 20  1  0  0  0  0
  5  7  1  0  0  0  0
  5  8  1  0  0  0  0
  5 10  1  0  0  0  0
  5 21  1  0  0  0  0
  6  8  1  0  0  0  0
  6 11  1  0  0  0  0
  6 22  1  0  0  0  0
  7 23  1  0  0  0  0
  7 24  1  0  0  0  0
  8 25  1  0  0  0  0
  8 26  1  0  0  0  0
  9 10  2  0  0  0  0
  9 27  1  0  0  0  0
 10 28  1  0  0  0  0
 12 13  2  0  0  0  0
 12 14  1  0  0  0  0
 13 16  1  0  0  0  0
 13 29  1  0  0  0  0
 14 17  2  0  0  0  0
 14 30  1  0  0  0  0
 15 18  1  0  0  0  0
 15 31  1  0  0  0  0
 15 32  1  0  0  0  0
 16 19  2  0  0  0  0
 16 33  1  0  0  0  0
 17 19  1  0  0  0  0
 17 34  1  0  0  0  0
 18 35  1  0  0  0  0
 18 36  1  0  0  0  0
 18 37  1  0  0  0  0
 19 38  1  0  0  0  0
M  END
> <PUBCHEM_COMPOUND_CID>
101183351

> <PUBCHEM_CONFORMER_RMSD>
0.8

> <PUBCHEM_CONFORMER_DIVERSEORDER>
1
11
18
10
20
24
9
6
16
4
23
7
21
17
3
14
5
22
15
19
8
2
13
12

> <PUBCHEM_MMFF94_PARTIAL_CHARGES>
23
1 -0.57
10 -0.29
11 0.57
12 0.12
13 -0.15
14 -0.15
15 0.28
16 -0.15
17 -0.15
19 -0.15
2 -0.32
27 0.15
28 0.15
29 0.15
3 -0.14
30 0.15
33 0.15
34 0.15
38 0.15
4 0.14
5 0.14
6 0.06
9 -0.29

> <PUBCHEM_EFFECTIVE_ROTOR_COUNT>
5.6

> <PUBCHEM_PHARMACOPHORE_FEATURES>
3
1 1 acceptor
6 12 13 14 16 17 19 rings
7 4 5 6 7 8 9 10 rings

> <PUBCHEM_HEAVY_ATOM_COUNT>
19

> <PUBCHEM_ATOM_DEF_STEREO_COUNT>
3

> <PUBCHEM_ATOM_UDEF_STEREO_COUNT>
0

> <PUBCHEM_BOND_DEF_STEREO_COUNT>
0

> <PUBCHEM_BOND_UDEF_STEREO_COUNT>
0

> <PUBCHEM_ISOTOPIC_ATOM_COUNT>
0

> <PUBCHEM_COMPONENT_COUNT>
1

> <PUBCHEM_CACTVS_TAUTO_COUNT>
2

> <PUBCHEM_CONFORMER_ID>
0607EF7700000001

> <PUBCHEM_MMFF94_ENERGY>
79.3934

> <PUBCHEM_FEATURE_SELFOVERLAP>
15.223

> <PUBCHEM_SHAPE_FINGERPRINT>
11578080 2 17773575179385870040
12251169 10 11743831473852701486
12553582 1 18412546479105412610
12707595 3 18408318903982901234
12788726 201 18047466725604320408
13134695 92 18410570703912995132
15375462 189 18410300211167335250
15502722 9 18051972811828136740
16945 1 18337383945956180905
17349148 13 17894628107464739682
1813 80 18129957709968852468
19862831 5 17822010861396324170
200 152 18260830354683962462
20157964 124 9438864741896225259
20291156 8 18341896281431097366
20361792 2 18343297054875862310
20671657 53 18342740727725166036
21250096 35 18410571760569622366
21524375 3 17252851162443613113
21634736 98 18127408075653748982
221490 88 18192436491733965970
2255824 54 18196656413287747660
22646028 28 18343582927952396734
22854114 59 10952046749501017398
232386 152 16774080712781904763
23402539 116 18337392635044409134
23419403 2 14356962694220164088
23526113 38 18040719203207164704
23557571 272 18057028130749516056
23559900 14 18271515511218261193
23566358 27 18050578631511157227
23598291 2 18129674104868022485
314173 41 18412550928601984222
3323516 105 18188209909118139067
458136 41 17761223506398603201
465052 167 18270689778767224799
474 4 18051690241719376192
532947 4 18124321764406996924
6992083 37 18200608985970343409
7164475 11 18120372052113766966
7364860 26 18198057190874817273
74978 22 18341608269820019855
81228 2 18119529838881400176
9981440 41 9151173138603897909

> <PUBCHEM_SHAPE_MULTIPOLES>
374.29
7.26
3.08
1.19
1.39
4.26
0.15
-4.63
-1.55
1.64
0
-0.5
-0.2
-0.36

> <PUBCHEM_SHAPE_SELFOVERLAP>
807.326

> <PUBCHEM_SHAPE_VOLUME>
210.2

> <PUBCHEM_COORDINATE_TYPE>
2
5
10

$$$$
