188297
  -OEChem-02172602313D

 38 40  0     1  0  0  0  0  0999 V2000
   -1.8196   -1.2915    0.1870 O   0  0  0  0  0  0  0  0  0  0  0  0
    3.6684    1.7118    0.2928 O   0  0  0  0  0  0  0  0  0  0  0  0
   -4.1317   -1.3387    0.1549 O   0  0  0  0  0  0  0  0  0  0  0  0
    1.4408    0.7645   -0.1022 C   0  0  1  0  0  0  0  0  0  0  0  0
    0.5688   -0.4862    0.3184 C   0  0  1  0  0  0  0  0  0  0  0  0
   -0.8669   -0.2928   -0.2076 C   0  0  2  0  0  0  0  0  0  0  0  0
    0.7631    2.0867    0.3742 C   0  0  0  0  0  0  0  0  0  0  0  0
   -1.4585    0.9733    0.3944 C   0  0  1  0  0  0  0  0  0  0  0  0
    2.8257    0.5992    0.5832 C   0  0  1  0  0  0  0  0  0  0  0  0
   -0.7094    2.2150   -0.0508 C   0  0  0  0  0  0  0  0  0  0  0  0
    1.2737   -1.7977   -0.0166 C   0  0  0  0  0  0  0  0  0  0  0  0
    1.6267    0.8702   -1.6443 C   0  0  0  0  0  0  0  0  0  0  0  0
    3.5353   -0.6923    0.1544 C   0  0  0  0  0  0  0  0  0  0  0  0
   -2.8788    0.7350    0.0421 C   0  0  0  0  0  0  0  0  0  0  0  0
    2.6187   -1.8590   -0.0678 C   0  0  0  0  0  0  0  0  0  0  0  0
   -3.0752   -0.7359    0.1194 C   0  0  0  0  0  0  0  0  0  0  0  0
    0.4620   -3.0448   -0.2158 C   0  0  0  0  0  0  0  0  0  0  0  0
   -3.8428    1.5833   -0.3158 C   0  0  0  0  0  0  0  0  0  0  0  0
    0.4923   -0.5002    1.4177 H   0  0  0  0  0  0  0  0  0  0  0  0
   -0.8646   -0.2818   -1.3060 H   0  0  0  0  0  0  0  0  0  0  0  0
    1.3159    2.9590    0.0044 H   0  0  0  0  0  0  0  0  0  0  0  0
    0.8094    2.1367    1.4705 H   0  0  0  0  0  0  0  0  0  0  0  0
   -1.4054    0.9213    1.4933 H   0  0  0  0  0  0  0  0  0  0  0  0
    2.6893    0.5839    1.6720 H   0  0  0  0  0  0  0  0  0  0  0  0
   -1.1438    3.1082    0.4136 H   0  0  0  0  0  0  0  0  0  0  0  0
   -0.7887    2.3559   -1.1345 H   0  0  0  0  0  0  0  0  0  0  0  0
    2.1273   -0.0020   -2.0736 H   0  0  0  0  0  0  0  0  0  0  0  0
    0.6747    0.9724   -2.1723 H   0  0  0  0  0  0  0  0  0  0  0  0
    2.2209    1.7508   -1.9128 H   0  0  0  0  0  0  0  0  0  0  0  0
    4.2760   -0.9560    0.9196 H   0  0  0  0  0  0  0  0  0  0  0  0
    4.1137   -0.5286   -0.7636 H   0  0  0  0  0  0  0  0  0  0  0  0
    3.1061   -2.8056   -0.2885 H   0  0  0  0  0  0  0  0  0  0  0  0
   -0.1500   -3.2483    0.6685 H   0  0  0  0  0  0  0  0  0  0  0  0
    1.0916   -3.9263   -0.3802 H   0  0  0  0  0  0  0  0  0  0  0  0
   -0.1872   -2.9468   -1.0913 H   0  0  0  0  0  0  0  0  0  0  0  0
    3.9592    1.6502   -0.6320 H   0  0  0  0  0  0  0  0  0  0  0  0
   -3.6537    2.6497   -0.3727 H   0  0  0  0  0  0  0  0  0  0  0  0
   -4.8418    1.2380   -0.5599 H   0  0  0  0  0  0  0  0  0  0  0  0
  1  6  1  0  0  0  0
  1 16  1  0  0  0  0
  2  9  1  0  0  0  0
  2 36  1  0  0  0  0
  3 16  2  0  0  0  0
  4  5  1  0  0  0  0
  4  7  1  0  0  0  0
  4  9  1  0  0  0  0
  4 12  1  0  0  0  0
  5  6  1  0  0  0  0
  5 11  1  0  0  0  0
  5 19  1  0  0  0  0
  6  8  1  0  0  0  0
  6 20  1  0  0  0  0
  7 10  1  0  0  0  0
  7 21  1  0  0  0  0
  7 22  1  0  0  0  0
  8 10  1  0  0  0  0
  8 14  1  0  0  0  0
  8 23  1  0  0  0  0
  9 13  1  0  0  0  0
  9 24  1  0  0  0  0
 10 25  1  0  0  0  0
 10 26  1  0  0  0  0
 11 15  2  0  0  0  0
 11 17  1  0  0  0  0
 12 27  1  0  0  0  0
 12 28  1  0  0  0  0
 12 29  1  0  0  0  0
 13 15  1  0  0  0  0
 13 30  1  0  0  0  0
 13 31  1  0  0  0  0
 14 16  1  0  0  0  0
 14 18  2  0  0  0  0
 15 32  1  0  0  0  0
 17 33  1  0  0  0  0
 17 34  1  0  0  0  0
 17 35  1  0  0  0  0
 18 37  1  0  0  0  0
 18 38  1  0  0  0  0
M  END
> <PUBCHEM_COMPOUND_CID>
188297

> <PUBCHEM_CONFORMER_RMSD>
0.6

> <PUBCHEM_CONFORMER_DIVERSEORDER>
1

> <PUBCHEM_MMFF94_PARTIAL_CHARGES>
18
1 -0.43
11 -0.28
13 0.14
14 -0.12
15 -0.29
16 0.71
17 0.14
18 -0.3
2 -0.68
3 -0.57
32 0.15
36 0.4
37 0.15
38 0.15
5 0.14
6 0.28
8 0.14
9 0.28

> <PUBCHEM_EFFECTIVE_ROTOR_COUNT>
1

> <PUBCHEM_PHARMACOPHORE_FEATURES>
6
1 2 acceptor
1 2 donor
1 3 acceptor
5 1 6 8 14 16 rings
6 4 5 6 7 8 10 rings
6 4 5 9 11 13 15 rings

> <PUBCHEM_HEAVY_ATOM_COUNT>
18

> <PUBCHEM_ATOM_DEF_STEREO_COUNT>
5

> <PUBCHEM_ATOM_UDEF_STEREO_COUNT>
0

> <PUBCHEM_BOND_DEF_STEREO_COUNT>
0

> <PUBCHEM_BOND_UDEF_STEREO_COUNT>
0

> <PUBCHEM_ISOTOPIC_ATOM_COUNT>
0

> <PUBCHEM_COMPONENT_COUNT>
1

> <PUBCHEM_CACTVS_TAUTO_COUNT>
1

> <PUBCHEM_CONFORMER_ID>
0002DF8900000001

> <PUBCHEM_MMFF94_ENERGY>
52.4071

> <PUBCHEM_FEATURE_SELFOVERLAP>
30.537

> <PUBCHEM_SHAPE_FINGERPRINT>
10062212 137 18336819827814035011
10411042 1 16321466361173395187
10608611 8 18409726227516874409
10616163 171 18411700950400223659
10863032 1 18412543193302333512
10922523 26 18114464436024968021
10967382 1 18339360889163672290
10980938 120 18410857667767842714
1100329 8 16754092338486503921
11132069 177 18410004412464162616
11471102 20 18339355249797759637
11806522 49 18338230587184629919
12382932 28 18411698755640196201
13132413 78 18341328976349384308
13140716 1 18338521833048324619
13296908 3 18411699868099977193
13897977 150 18339357466254117873
14115302 16 18261682471620966541
14178342 30 18340484452539877481
14223421 5 18339641114331312492
14251717 144 18411415141859754543
14787075 74 17557134313844823457
14790565 3 18266751366191280272
15196674 1 18410854356353221840
15219456 202 18410009918807213289
15442244 35 17907859504963482083
15536298 74 18342738494526781906
15775835 57 18272371996448182648
16945 1 18051412868641518250
17804303 29 18339645521326636214
18186145 218 18201731647165642520
193761 8 17835240043435727616
19591789 44 18411982477096240734
200 152 18131340943553300351
20510252 161 18272373100329014513
20559304 39 18337114561085607061
20645476 183 17970083329264488758
20645477 70 18201433628275529975
20905425 154 18196093248491107102
21267235 1 18411145718445303363
21501502 16 18339082583809529137
221490 88 18410300181166192554
2334 1 18411140263715225803
23402539 116 18272078431518342084
23419403 2 16318010784129761057
23463225 33 18408604746946483696
23559900 14 18196646307535635834
2748010 2 18410860966323870478
335352 9 18122623859942426071
34934 24 18266451023474907409
5104073 3 18410573968140401017
7364860 26 18270118985569991854
8809292 202 18261960630656058323
9709674 26 18410296899827028563

> <PUBCHEM_SHAPE_MULTIPOLES>
352.82
6.15
2.73
0.82
2.88
0.83
-0.24
-0.1
0.29
-0.5
-0.02
-0.29
-0.2
0.21

> <PUBCHEM_SHAPE_SELFOVERLAP>
755.515

> <PUBCHEM_SHAPE_VOLUME>
193.4

> <PUBCHEM_COORDINATE_TYPE>
2
5
10

$$$$
