10091871
  -OEChem-02172602483D

 31 33  0     1  0  0  0  0  0999 V2000
    0.1335    4.1354   -0.1426 Cl  0  0  0  0  0  0  0  0  0  0  0  0
   -2.4850   -3.2052   -0.3662 Cl  0  0  0  0  0  0  0  0  0  0  0  0
   -5.1066   -1.5789    0.5682 Cl  0  0  0  0  0  0  0  0  0  0  0  0
    3.2370   -2.6569    0.6002 F   0  0  0  0  0  0  0  0  0  0  0  0
    1.0918   -2.2830    0.7570 F   0  0  0  0  0  0  0  0  0  0  0  0
    1.9602   -2.8717   -1.1575 F   0  0  0  0  0  0  0  0  0  0  0  0
    1.2624   -0.1828   -1.1028 O   0  0  0  0  0  0  0  0  0  0  0  0
    3.2871    2.1870   -0.3424 O   0  0  0  0  0  0  0  0  0  0  0  0
    3.8327    0.1502    1.3856 O   0  0  0  0  0  0  0  0  0  0  0  0
   -0.2527    1.4945   -0.3777 N   0  0  0  0  0  0  0  0  0  0  0  0
   -2.0616    2.6234    0.2685 N   0  0  0  0  0  0  0  0  0  0  0  0
    1.1245    1.2201   -0.7911 C   0  0  1  0  0  0  0  0  0  0  0  0
    2.1649    1.5610    0.2772 C   0  0  1  0  0  0  0  0  0  0  0  0
    2.5341    0.1991    0.8346 C   0  0  1  0  0  0  0  0  0  0  0  0
    2.3957   -0.6966   -0.3841 C   0  0  1  0  0  0  0  0  0  0  0  0
    2.1664   -2.1571   -0.0389 C   0  0  0  0  0  0  0  0  0  0  0  0
   -1.2437    0.5543   -0.2248 C   0  0  0  0  0  0  0  0  0  0  0  0
   -0.7951    2.7152   -0.0705 C   0  0  0  0  0  0  0  0  0  0  0  0
   -2.3593    1.2832    0.1779 C   0  0  0  0  0  0  0  0  0  0  0  0
   -1.2548   -0.8299   -0.4003 C   0  0  0  0  0  0  0  0  0  0  0  0
   -3.5663    0.6073    0.4249 C   0  0  0  0  0  0  0  0  0  0  0  0
   -2.4644   -1.4863   -0.1502 C   0  0  0  0  0  0  0  0  0  0  0  0
   -3.6008   -0.7825    0.2551 C   0  0  0  0  0  0  0  0  0  0  0  0
    1.2776    1.7764   -1.7234 H   0  0  0  0  0  0  0  0  0  0  0  0
    1.8272    2.2257    1.0768 H   0  0  0  0  0  0  0  0  0  0  0  0
    1.8061   -0.0789    1.6066 H   0  0  0  0  0  0  0  0  0  0  0  0
    3.2763   -0.6185   -1.0337 H   0  0  0  0  0  0  0  0  0  0  0  0
    2.9807    3.0355   -0.7057 H   0  0  0  0  0  0  0  0  0  0  0  0
    4.0057   -0.7694    1.6496 H   0  0  0  0  0  0  0  0  0  0  0  0
   -0.4256   -1.4163   -0.7565 H   0  0  0  0  0  0  0  0  0  0  0  0
   -4.4451    1.1622    0.7396 H   0  0  0  0  0  0  0  0  0  0  0  0
  1 18  1  0  0  0  0
  2 22  1  0  0  0  0
  3 23  1  0  0  0  0
  4 16  1  0  0  0  0
  5 16  1  0  0  0  0
  6 16  1  0  0  0  0
  7 12  1  0  0  0  0
  7 15  1  0  0  0  0
  8 13  1  0  0  0  0
  8 28  1  0  0  0  0
  9 14  1  0  0  0  0
  9 29  1  0  0  0  0
 10 12  1  0  0  0  0
 10 17  1  0  0  0  0
 10 18  1  0  0  0  0
 11 18  2  0  0  0  0
 11 19  1  0  0  0  0
 12 13  1  0  0  0  0
 12 24  1  0  0  0  0
 13 14  1  0  0  0  0
 13 25  1  0  0  0  0
 14 15  1  0  0  0  0
 14 26  1  0  0  0  0
 15 16  1  0  0  0  0
 15 27  1  0  0  0  0
 17 19  1  0  0  0  0
 17 20  2  0  0  0  0
 19 21  2  0  0  0  0
 20 22  1  0  0  0  0
 20 30  1  0  0  0  0
 21 23  1  0  0  0  0
 21 31  1  0  0  0  0
 22 23  2  0  0  0  0
M  END
> <PUBCHEM_COMPOUND_CID>
10091871

> <PUBCHEM_CONFORMER_RMSD>
0.6

> <PUBCHEM_CONFORMER_DIVERSEORDER>
1
7
5
4
6
3
2

> <PUBCHEM_MMFF94_PARTIAL_CHARGES>
27
1 -0.12
10 0.05
11 -0.57
12 0.54
13 0.28
14 0.28
15 0.28
16 1.02
17 -0.15
18 0.31
19 0.23
2 -0.18
20 -0.15
21 -0.15
22 0.18
23 0.18
28 0.4
29 0.4
3 -0.18
30 0.15
31 0.15
4 -0.34
5 -0.34
6 -0.34
7 -0.56
8 -0.68
9 -0.68

> <PUBCHEM_EFFECTIVE_ROTOR_COUNT>
3

> <PUBCHEM_PHARMACOPHORE_FEATURES>
9
1 7 acceptor
1 8 acceptor
1 8 donor
1 9 acceptor
1 9 donor
3 10 11 18 cation
5 10 11 17 18 19 rings
5 7 12 13 14 15 rings
6 17 19 20 21 22 23 rings

> <PUBCHEM_HEAVY_ATOM_COUNT>
23

> <PUBCHEM_ATOM_DEF_STEREO_COUNT>
4

> <PUBCHEM_ATOM_UDEF_STEREO_COUNT>
0

> <PUBCHEM_BOND_DEF_STEREO_COUNT>
0

> <PUBCHEM_BOND_UDEF_STEREO_COUNT>
0

> <PUBCHEM_ISOTOPIC_ATOM_COUNT>
0

> <PUBCHEM_COMPONENT_COUNT>
1

> <PUBCHEM_CACTVS_TAUTO_COUNT>
1

> <PUBCHEM_CONFORMER_ID>
0099FD5F00000001

> <PUBCHEM_MMFF94_ENERGY>
56.553

> <PUBCHEM_FEATURE_SELFOVERLAP>
45.789

> <PUBCHEM_SHAPE_FINGERPRINT>
10616163 171 18339081595961919054
10967382 1 18338801233661098645
1100329 8 17257926521350176584
11578080 2 17532909775046668805
12382932 28 18412544348869952257
12553582 1 18339081600578484047
12633257 1 17984706618896662307
12839892 36 18339907304057441882
13140716 1 17907864260014622097
138480 1 14590958109012251389
14081887 123 18271794735642684489
14178342 30 18270113655621137833
14223421 5 18339920420391756136
14251757 5 17043185865837781374
14790565 3 17833281087525820629
14863182 85 18264783210222366150
15422964 175 18410009931692245141
16945 1 18338794507721636436
17804303 29 17980487758489589014
1813 80 17603307050627912005
19591789 44 17617663597174453580
20442098 301 18412260614592919739
20559304 39 18337399334792457973
20645477 70 18046622589059326687
20905425 154 18341619178641274046
21421861 104 18333734632456316673
2255824 54 17975420431868434901
23184049 29 18338797793086404437
2334 1 18411141294924186341
23559900 14 18268144271318671340
2748010 2 18266743476509638525
3091708 16 9066837302777689185
34934 24 18269556203531687007
352729 6 18051135783343404541
7097593 13 18337668594882042386
7364860 26 18413111649709718542
9709674 26 18268987579477970815

> <PUBCHEM_SHAPE_MULTIPOLES>
429.55
6.89
4.3
0.9
4.36
1.04
-0.04
-3.02
-1.72
-1.21
0.32
-0.42
-0.23
-0.34

> <PUBCHEM_SHAPE_SELFOVERLAP>
916.372

> <PUBCHEM_SHAPE_VOLUME>
244.4

> <PUBCHEM_COORDINATE_TYPE>
2
5
10

$$$$
