10993414
  -OEChem-02172602363D

 57 59  0     1  0  0  0  0  0999 V2000
    0.8545   -1.8820   -0.5806 O   0  0  0  0  0  0  0  0  0  0  0  0
    1.7451    0.0122    0.5253 O   0  0  0  0  0  0  0  0  0  0  0  0
   -2.6100   -0.7754   -0.2306 O   0  0  0  0  0  0  0  0  0  0  0  0
   -0.7119    0.4666   -0.7770 O   0  0  0  0  0  0  0  0  0  0  0  0
    4.4910   -0.6870    1.3567 O   0  0  0  0  0  0  0  0  0  0  0  0
   -0.3293   -3.8417    1.2739 O   0  0  0  0  0  0  0  0  0  0  0  0
    3.8361   -2.7573   -0.3904 O   0  0  0  0  0  0  0  0  0  0  0  0
   -3.1074   -4.3023    0.6216 O   0  0  0  0  0  0  0  0  0  0  0  0
    5.8142    1.2228   -0.2006 O   0  0  0  0  0  0  0  0  0  0  0  0
   -5.3271   -0.9208   -0.6210 O   0  0  0  0  0  0  0  0  0  0  0  0
   -0.4051   -1.7456    0.0768 C   0  0  2  0  0  0  0  0  0  0  0  0
    4.0346   -0.3523    0.0458 C   0  0  1  0  0  0  0  0  0  0  0  0
   -1.0349   -3.1268    0.2582 C   0  0  2  0  0  0  0  0  0  0  0  0
    3.2235   -1.4917   -0.5423 C   0  0  2  0  0  0  0  0  0  0  0  0
    1.9133   -1.3838    0.2242 C   0  0  2  0  0  0  0  0  0  0  0  0
   -2.4979   -3.0158    0.6878 C   0  0  1  0  0  0  0  0  0  0  0  0
   -1.2931   -0.8369   -0.7732 C   0  0  1  0  0  0  0  0  0  0  0  0
   -3.2590   -2.0481   -0.2216 C   0  0  1  0  0  0  0  0  0  0  0  0
    2.9586    0.7129    0.1843 C   0  0  0  0  0  0  0  0  0  0  0  0
    5.2230    0.0794   -0.7958 C   0  0  0  0  0  0  0  0  0  0  0  0
   -4.6909   -1.8309    0.2575 C   0  0  0  0  0  0  0  0  0  0  0  0
   -1.1833    1.2385   -1.8705 C   0  0  0  0  0  0  0  0  0  0  0  0
   -0.5312    2.6164   -1.8480 C   0  0  0  0  0  0  0  0  0  0  0  0
   -0.8710    3.3919   -0.5983 C   0  0  0  0  0  0  0  0  0  0  0  0
   -1.9958    4.2167   -0.5736 C   0  0  0  0  0  0  0  0  0  0  0  0
   -0.0608    3.2835    0.5320 C   0  0  0  0  0  0  0  0  0  0  0  0
   -2.3102    4.9331    0.5812 C   0  0  0  0  0  0  0  0  0  0  0  0
   -0.3752    3.9999    1.6868 C   0  0  0  0  0  0  0  0  0  0  0  0
   -1.5000    4.8247    1.7113 C   0  0  0  0  0  0  0  0  0  0  0  0
   -0.2849   -1.2919    1.0715 H   0  0  0  0  0  0  0  0  0  0  0  0
   -0.9377   -3.7207   -0.6582 H   0  0  0  0  0  0  0  0  0  0  0  0
    3.0504   -1.3297   -1.6143 H   0  0  0  0  0  0  0  0  0  0  0  0
    1.9568   -1.9499    1.1635 H   0  0  0  0  0  0  0  0  0  0  0  0
   -2.5514   -2.6820    1.7312 H   0  0  0  0  0  0  0  0  0  0  0  0
   -1.3297   -1.2198   -1.8028 H   0  0  0  0  0  0  0  0  0  0  0  0
   -3.3002   -2.4254   -1.2525 H   0  0  0  0  0  0  0  0  0  0  0  0
    2.7737    1.2411   -0.7575 H   0  0  0  0  0  0  0  0  0  0  0  0
    3.1640    1.4429    0.9729 H   0  0  0  0  0  0  0  0  0  0  0  0
    4.9234    0.3319   -1.8181 H   0  0  0  0  0  0  0  0  0  0  0  0
    5.9809   -0.7103   -0.8300 H   0  0  0  0  0  0  0  0  0  0  0  0
   -4.7040   -1.3905    1.2602 H   0  0  0  0  0  0  0  0  0  0  0  0
   -5.2582   -2.7664    0.2656 H   0  0  0  0  0  0  0  0  0  0  0  0
    4.9615    0.0855    1.7142 H   0  0  0  0  0  0  0  0  0  0  0  0
   -0.3783   -3.3262    2.0969 H   0  0  0  0  0  0  0  0  0  0  0  0
    3.2005   -3.4269   -0.6957 H   0  0  0  0  0  0  0  0  0  0  0  0
   -3.0764   -4.6022   -0.3029 H   0  0  0  0  0  0  0  0  0  0  0  0
   -2.2745    1.3332   -1.8158 H   0  0  0  0  0  0  0  0  0  0  0  0
   -0.9222    0.7407   -2.8118 H   0  0  0  0  0  0  0  0  0  0  0  0
    6.5721    1.4747   -0.7551 H   0  0  0  0  0  0  0  0  0  0  0  0
    0.5595    2.5103   -1.9111 H   0  0  0  0  0  0  0  0  0  0  0  0
   -0.8376    3.1880   -2.7324 H   0  0  0  0  0  0  0  0  0  0  0  0
   -6.2343   -0.7938   -0.2952 H   0  0  0  0  0  0  0  0  0  0  0  0
   -2.6357    4.3076   -1.4473 H   0  0  0  0  0  0  0  0  0  0  0  0
    0.8203    2.6510    0.5260 H   0  0  0  0  0  0  0  0  0  0  0  0
   -3.1862    5.5749    0.6006 H   0  0  0  0  0  0  0  0  0  0  0  0
    0.2564    3.9165    2.5663 H   0  0  0  0  0  0  0  0  0  0  0  0
   -1.7446    5.3826    2.6105 H   0  0  0  0  0  0  0  0  0  0  0  0
  1 11  1  0  0  0  0
  1 15  1  0  0  0  0
  2 15  1  0  0  0  0
  2 19  1  0  0  0  0
  3 17  1  0  0  0  0
  3 18  1  0  0  0  0
  4 17  1  0  0  0  0
  4 22  1  0  0  0  0
  5 12  1  0  0  0  0
  5 43  1  0  0  0  0
  6 13  1  0  0  0  0
  6 44  1  0  0  0  0
  7 14  1  0  0  0  0
  7 45  1  0  0  0  0
  8 16  1  0  0  0  0
  8 46  1  0  0  0  0
  9 20  1  0  0  0  0
  9 49  1  0  0  0  0
 10 21  1  0  0  0  0
 10 52  1  0  0  0  0
 11 13  1  0  0  0  0
 11 17  1  0  0  0  0
 11 30  1  0  0  0  0
 12 14  1  0  0  0  0
 12 19  1  0  0  0  0
 12 20  1  0  0  0  0
 13 16  1  0  0  0  0
 13 31  1  0  0  0  0
 14 15  1  0  0  0  0
 14 32  1  0  0  0  0
 15 33  1  0  0  0  0
 16 18  1  0  0  0  0
 16 34  1  0  0  0  0
 17 35  1  0  0  0  0
 18 21  1  0  0  0  0
 18 36  1  0  0  0  0
 19 37  1  0  0  0  0
 19 38  1  0  0  0  0
 20 39  1  0  0  0  0
 20 40  1  0  0  0  0
 21 41  1  0  0  0  0
 21 42  1  0  0  0  0
 22 23  1  0  0  0  0
 22 47  1  0  0  0  0
 22 48  1  0  0  0  0
 23 24  1  0  0  0  0
 23 50  1  0  0  0  0
 23 51  1  0  0  0  0
 24 25  2  0  0  0  0
 24 26  1  0  0  0  0
 25 27  1  0  0  0  0
 25 53  1  0  0  0  0
 26 28  2  0  0  0  0
 26 54  1  0  0  0  0
 27 29  2  0  0  0  0
 27 55  1  0  0  0  0
 28 29  1  0  0  0  0
 28 56  1  0  0  0  0
 29 57  1  0  0  0  0
M  END
> <PUBCHEM_COMPOUND_CID>
10993414

> <PUBCHEM_CONFORMER_RMSD>
1

> <PUBCHEM_CONFORMER_DIVERSEORDER>
1
26
80
5
45
72
38
91
17
47
89
85
55
9
61
68
52
78
83
84
27
77
22
20
62
24
81
23
2
3
76
39
41
82
28
40
73
46
65
87
43
8
18
32
75
90
29
37
59
48
36
60
63
15
70
57
92
4
51
6
49
12
30
71
7
14
88
54
74
86
79
53
33
67
64
42
13
31
16
56
58
11
66
34
19
35
21
69
10
50
44
25

> <PUBCHEM_MMFF94_PARTIAL_CHARGES>
40
1 -0.56
10 -0.68
11 0.28
12 0.28
13 0.28
14 0.28
15 0.56
16 0.28
17 0.56
18 0.28
19 0.28
2 -0.56
20 0.28
21 0.28
22 0.28
23 0.14
24 -0.14
25 -0.15
26 -0.15
27 -0.15
28 -0.15
29 -0.15
3 -0.56
4 -0.56
43 0.4
44 0.4
45 0.4
46 0.4
49 0.4
5 -0.68
52 0.4
53 0.15
54 0.15
55 0.15
56 0.15
57 0.15
6 -0.68
7 -0.68
8 -0.68
9 -0.68

> <PUBCHEM_EFFECTIVE_ROTOR_COUNT>
10.2

> <PUBCHEM_PHARMACOPHORE_FEATURES>
19
1 1 acceptor
1 10 acceptor
1 10 donor
1 2 acceptor
1 3 acceptor
1 4 acceptor
1 5 acceptor
1 5 donor
1 6 acceptor
1 6 donor
1 7 acceptor
1 7 donor
1 8 acceptor
1 8 donor
1 9 acceptor
1 9 donor
5 2 12 14 15 19 rings
6 24 25 26 27 28 29 rings
6 3 11 13 16 17 18 rings

> <PUBCHEM_HEAVY_ATOM_COUNT>
29

> <PUBCHEM_ATOM_DEF_STEREO_COUNT>
8

> <PUBCHEM_ATOM_UDEF_STEREO_COUNT>
0

> <PUBCHEM_BOND_DEF_STEREO_COUNT>
0

> <PUBCHEM_BOND_UDEF_STEREO_COUNT>
0

> <PUBCHEM_ISOTOPIC_ATOM_COUNT>
0

> <PUBCHEM_COMPONENT_COUNT>
1

> <PUBCHEM_CACTVS_TAUTO_COUNT>
1

> <PUBCHEM_CONFORMER_ID>
00A7BF0600000001

> <PUBCHEM_MMFF94_ENERGY>
86.7704

> <PUBCHEM_FEATURE_SELFOVERLAP>
96.552

> <PUBCHEM_SHAPE_FINGERPRINT>
10006869 2 18122333585448313175
10064457 181 17835528115799086428
10165383 225 17326637807598835428
1100329 8 18263085586303104743
11049842 53 16242098800520627525
12160290 23 18049692201531767564
12788726 201 18408318882824615210
13140716 1 18192422190093984114
13533116 47 17617379923902786431
138480 1 15888558919705335280
140371 6 18336555987856757214
14363568 33 17689163721958931328
14955137 171 18050861201287972535
15131766 46 15696291114730193568
15230672 131 16606882661552563380
17138139 8 17695868230470206277
17980427 23 17916604153643060411
19319366 153 17550657821185590912
20510252 161 18335414634620861470
20567600 299 17835803371356859397
20600515 1 18335995245732946975
21120745 212 18194428751428143364
22182937 141 18124029027439889228
23557571 272 18411705374554240294
23558518 356 18124026836927336782
23559900 14 17833826449830491587
23845131 108 17615973206032950937
283562 15 18336544923984358251
392239 28 17766566755248216153
469060 322 18335426755219427320
50150288 127 17414705468101904125
5171179 24 17905875226458673727
6004065 56 18268697493677959607
6287921 2 17258212402720421642
6442390 28 17977398130852688909

> <PUBCHEM_SHAPE_MULTIPOLES>
538.11
8.5
7.48
1.36
10.15
3.68
-0.07
-1.5
-0.31
-9.68
2.94
-0.42
1.12
-0.31

> <PUBCHEM_SHAPE_SELFOVERLAP>
1123.816

> <PUBCHEM_SHAPE_VOLUME>
301.7

> <PUBCHEM_COORDINATE_TYPE>
2
5
10

$$$$
