101297605
  -OEChem-02172602533D

 62 63  0     1  0  0  0  0  0999 V2000
    3.3460   -1.1812    0.6033 O   0  0  0  0  0  0  0  0  0  0  0  0
    1.7687    3.3267   -1.1423 O   0  0  0  0  0  0  0  0  0  0  0  0
   -0.8304    1.2607    0.1610 O   0  0  0  0  0  0  0  0  0  0  0  0
    0.2905   -1.5113   -1.2466 O   0  0  0  0  0  0  0  0  0  0  0  0
    0.7869    2.6079    2.2360 O   0  0  0  0  0  0  0  0  0  0  0  0
   -0.7028    2.5705   -1.7295 O   0  0  0  0  0  0  0  0  0  0  0  0
    0.8846   -2.1792    0.8762 O   0  0  0  0  0  0  0  0  0  0  0  0
   -2.5098    0.0242   -2.2452 O   0  0  0  0  0  0  0  0  0  0  0  0
    3.0662   -3.4743    0.5988 O   0  0  0  0  0  0  0  0  0  0  0  0
   -4.8154   -0.5440    0.4415 N   0  0  1  0  0  0  0  0  0  0  0  0
    2.4371    0.4294   -0.9730 C   0  0  2  0  0  0  0  0  0  0  0  0
    2.0203    1.3248    0.2292 C   0  0  0  0  0  0  0  0  0  0  0  0
    1.1426    2.5387   -0.1387 C   0  0  1  0  0  0  0  0  0  0  0  0
    2.5217   -1.0701   -0.5563 C   0  0  1  0  0  0  0  0  0  0  0  0
    0.9140    3.4320    1.0859 C   0  0  2  0  0  0  0  0  0  0  0  0
    3.7761    0.9283   -1.5471 C   0  0  0  0  0  0  0  0  0  0  0  0
   -0.2202    2.1320   -0.6930 C   0  0  0  0  0  0  0  0  0  0  0  0
    3.1215   -1.9734   -1.6430 C   0  0  0  0  0  0  0  0  0  0  0  0
    1.1463   -1.6377   -0.1906 C   0  0  0  0  0  0  0  0  0  0  0  0
   -2.2200    0.9631   -0.0518 C   0  0  2  0  0  0  0  0  0  0  0  0
    2.0579    4.4087    1.2824 C   0  0  0  0  0  0  0  0  0  0  0  0
   -2.8150    0.7109    1.3328 C   0  0  0  0  0  0  0  0  0  0  0  0
   -4.3327    0.5294    1.3231 C   0  0  0  0  0  0  0  0  0  0  0  0
   -2.3223   -0.1917   -1.0466 C   0  0  0  0  0  0  0  0  0  0  0  0
   -2.0757   -1.5886   -0.5946 C   0  0  0  0  0  0  0  0  0  0  0  0
   -0.9100   -2.3028   -1.2260 C   0  0  0  0  0  0  0  0  0  0  0  0
   -4.2630   -1.8538    0.8049 C   0  0  0  0  0  0  0  0  0  0  0  0
   -2.9294   -2.2430    0.2132 C   0  0  0  0  0  0  0  0  0  0  0  0
    3.5338   -2.4488    1.0749 C   0  0  0  0  0  0  0  0  0  0  0  0
   -6.2810   -0.5757    0.4734 C   0  0  0  0  0  0  0  0  0  0  0  0
    4.4137   -2.4116    2.2876 C   0  0  0  0  0  0  0  0  0  0  0  0
    1.6898    0.5253   -1.7702 H   0  0  0  0  0  0  0  0  0  0  0  0
    1.4881    0.7064    0.9611 H   0  0  0  0  0  0  0  0  0  0  0  0
    2.9345    1.6667    0.7314 H   0  0  0  0  0  0  0  0  0  0  0  0
   -0.0154    4.0057    0.9823 H   0  0  0  0  0  0  0  0  0  0  0  0
    4.5948    0.7786   -0.8351 H   0  0  0  0  0  0  0  0  0  0  0  0
    3.7404    1.9932   -1.7915 H   0  0  0  0  0  0  0  0  0  0  0  0
    4.0332    0.4036   -2.4724 H   0  0  0  0  0  0  0  0  0  0  0  0
    4.2171   -1.9770   -1.6173 H   0  0  0  0  0  0  0  0  0  0  0  0
    2.8100   -1.6282   -2.6367 H   0  0  0  0  0  0  0  0  0  0  0  0
    2.7796   -3.0127   -1.6002 H   0  0  0  0  0  0  0  0  0  0  0  0
   -2.7298    1.8326   -0.4875 H   0  0  0  0  0  0  0  0  0  0  0  0
    3.0213    3.8959    1.3714 H   0  0  0  0  0  0  0  0  0  0  0  0
    1.9231    4.9597    2.2205 H   0  0  0  0  0  0  0  0  0  0  0  0
    2.1233    5.1476    0.4783 H   0  0  0  0  0  0  0  0  0  0  0  0
   -2.5803    1.5738    1.9716 H   0  0  0  0  0  0  0  0  0  0  0  0
   -2.3172   -0.1310    1.8287 H   0  0  0  0  0  0  0  0  0  0  0  0
    1.1980    4.0911   -1.3328 H   0  0  0  0  0  0  0  0  0  0  0  0
   -4.6716    0.3638    2.3545 H   0  0  0  0  0  0  0  0  0  0  0  0
   -4.7758    1.4801    0.9980 H   0  0  0  0  0  0  0  0  0  0  0  0
   -0.7073   -3.2718   -0.7531 H   0  0  0  0  0  0  0  0  0  0  0  0
   -1.1535   -2.5180   -2.2730 H   0  0  0  0  0  0  0  0  0  0  0  0
    0.6220    3.1879    2.9987 H   0  0  0  0  0  0  0  0  0  0  0  0
   -4.9506   -2.6369    0.4549 H   0  0  0  0  0  0  0  0  0  0  0  0
   -4.2195   -1.9715    1.8958 H   0  0  0  0  0  0  0  0  0  0  0  0
   -2.6685   -3.2748    0.4556 H   0  0  0  0  0  0  0  0  0  0  0  0
   -6.6962    0.3933    0.1742 H   0  0  0  0  0  0  0  0  0  0  0  0
   -6.6666   -0.8260    1.4684 H   0  0  0  0  0  0  0  0  0  0  0  0
   -6.6668   -1.3097   -0.2431 H   0  0  0  0  0  0  0  0  0  0  0  0
    4.5601   -3.4292    2.6608 H   0  0  0  0  0  0  0  0  0  0  0  0
    3.9375   -1.8180    3.0720 H   0  0  0  0  0  0  0  0  0  0  0  0
    5.3884   -1.9929    2.0251 H   0  0  0  0  0  0  0  0  0  0  0  0
  1 14  1  0  0  0  0
  1 29  1  0  0  0  0
  2 13  1  0  0  0  0
  2 48  1  0  0  0  0
  3 17  1  0  0  0  0
  3 20  1  0  0  0  0
  4 19  1  0  0  0  0
  4 26  1  0  0  0  0
  5 15  1  0  0  0  0
  5 53  1  0  0  0  0
  6 17  2  0  0  0  0
  7 19  2  0  0  0  0
  8 24  2  0  0  0  0
  9 29  2  0  0  0  0
 10 23  1  0  0  0  0
 10 27  1  0  0  0  0
 10 30  1  0  0  0  0
 11 12  1  0  0  0  0
 11 14  1  0  0  0  0
 11 16  1  0  0  0  0
 11 32  1  0  0  0  0
 12 13  1  0  0  0  0
 12 33  1  0  0  0  0
 12 34  1  0  0  0  0
 13 15  1  0  0  0  0
 13 17  1  0  0  0  0
 14 18  1  0  0  0  0
 14 19  1  0  0  0  0
 15 21  1  0  0  0  0
 15 35  1  0  0  0  0
 16 36  1  0  0  0  0
 16 37  1  0  0  0  0
 16 38  1  0  0  0  0
 18 39  1  0  0  0  0
 18 40  1  0  0  0  0
 18 41  1  0  0  0  0
 20 22  1  0  0  0  0
 20 24  1  0  0  0  0
 20 42  1  0  0  0  0
 21 43  1  0  0  0  0
 21 44  1  0  0  0  0
 21 45  1  0  0  0  0
 22 23  1  0  0  0  0
 22 46  1  0  0  0  0
 22 47  1  0  0  0  0
 23 49  1  0  0  0  0
 23 50  1  0  0  0  0
 24 25  1  0  0  0  0
 25 26  1  0  0  0  0
 25 28  2  0  0  0  0
 26 51  1  0  0  0  0
 26 52  1  0  0  0  0
 27 28  1  0  0  0  0
 27 54  1  0  0  0  0
 27 55  1  0  0  0  0
 28 56  1  0  0  0  0
 29 31  1  0  0  0  0
 30 57  1  0  0  0  0
 30 58  1  0  0  0  0
 30 59  1  0  0  0  0
 31 60  1  0  0  0  0
 31 61  1  0  0  0  0
 31 62  1  0  0  0  0
M  END
> <PUBCHEM_COMPOUND_CID>
101297605

> <PUBCHEM_CONFORMER_RMSD>
0.8

> <PUBCHEM_CONFORMER_DIVERSEORDER>
2
43
38
42
22
33
34
4
20
11
35
14
26
8
1
36
18
31
13
23
17
9
37
44
15
32
10
29
41
27
12
30
16
19
24
25
6
21
40
5
39
28
7
3

> <PUBCHEM_MMFF94_PARTIAL_CHARGES>
28
1 -0.43
10 -0.81
13 0.34
14 0.34
15 0.28
17 0.66
19 0.66
2 -0.68
20 0.34
23 0.27
24 0.49
25 -0.12
26 0.42
27 0.41
28 -0.29
29 0.66
3 -0.43
30 0.27
31 0.06
4 -0.43
48 0.4
5 -0.68
53 0.4
56 0.15
6 -0.57
7 -0.57
8 -0.57
9 -0.57

> <PUBCHEM_EFFECTIVE_ROTOR_COUNT>
5.2

> <PUBCHEM_PHARMACOPHORE_FEATURES>
9
1 10 cation
1 2 acceptor
1 2 donor
1 5 acceptor
1 5 donor
1 6 acceptor
1 7 acceptor
1 8 acceptor
1 9 acceptor

> <PUBCHEM_HEAVY_ATOM_COUNT>
31

> <PUBCHEM_ATOM_DEF_STEREO_COUNT>
3

> <PUBCHEM_ATOM_UDEF_STEREO_COUNT>
2

> <PUBCHEM_BOND_DEF_STEREO_COUNT>
1

> <PUBCHEM_BOND_UDEF_STEREO_COUNT>
0

> <PUBCHEM_ISOTOPIC_ATOM_COUNT>
0

> <PUBCHEM_COMPONENT_COUNT>
1

> <PUBCHEM_CACTVS_TAUTO_COUNT>
2

> <PUBCHEM_CONFORMER_ID>
0609ADC500000002

> <PUBCHEM_MMFF94_ENERGY>
92.7362

> <PUBCHEM_FEATURE_SELFOVERLAP>
45.699

> <PUBCHEM_SHAPE_FINGERPRINT>
10675989 125 16752659692485893100
1100329 8 18198347440970743676
11456790 92 18189620450236401049
11578080 2 17676476251095569519
12156800 1 16240334651530502060
12160290 23 17693089661459439564
12553582 1 18271525299728375252
12633257 1 18336841779650594867
12788726 201 18193008023575207698
13009979 54 18119247264783412650
13140716 1 18051407671757756112
133893 2 18053635209269297823
13533116 47 18270126837561201057
14081887 123 17838026245119830826
14178342 30 17622157288649830269
14713325 29 16242680429898560268
14790565 3 17901682779436203380
14955137 171 18129958813659552302
15420108 30 17771893098820766494
17980427 23 17559934654202074686
19319366 153 18188504574256031078
20600515 1 18048876299490270772
20691752 17 17898840507507315277
21033648 29 16414920721469124691
23558518 356 17691968584394499775
23559900 14 18130240323592418599
3380486 145 17841681090157706190
3680242 22 18264500498680235235
469060 322 18049174275868125634
5104073 3 18268726055653382171
7064713 232 17916312628136708091
7097593 13 18411416232539023479

> <PUBCHEM_SHAPE_MULTIPOLES>
580.16
8.73
4.71
1.86
9.45
3.12
-0.12
-5
-2.75
-4.93
-1.49
-1.06
0.06
-0.86

> <PUBCHEM_SHAPE_SELFOVERLAP>
1201.747

> <PUBCHEM_SHAPE_VOLUME>
325

> <PUBCHEM_COORDINATE_TYPE>
2
5
10

$$$$
