10115055
  -OEChem-02172602533D

 71 73  0     1  0  0  0  0  0999 V2000
    4.1761    0.9264   -1.2739 O   0  0  0  0  0  0  0  0  0  0  0  0
    2.1262    3.1365   -1.7745 O   0  0  0  0  0  0  0  0  0  0  0  0
    1.5107   -0.4229    1.5647 O   0  0  0  0  0  0  0  0  0  0  0  0
   -0.8440    0.6885    0.5683 O   0  0  0  0  0  0  0  0  0  0  0  0
   -2.5708    0.8496    2.0739 O   0  0  0  0  0  0  0  0  0  0  0  0
   -6.2956   -0.0970   -0.7098 O   0  0  0  0  0  0  0  0  0  0  0  0
   -4.4301    0.7619   -1.7571 O   0  0  0  0  0  0  0  0  0  0  0  0
   -2.8183   -0.2619    0.0526 N   0  0  0  0  0  0  0  0  0  0  0  0
    2.0317    1.2716   -0.1132 C   0  0  1  0  0  0  0  0  0  0  0  0
    1.4263    2.5508   -0.6655 C   0  0  2  0  0  0  0  0  0  0  0  0
    3.5432    1.3370   -0.0551 C   0  0  1  0  0  0  0  0  0  0  0  0
    4.3675    0.0846   -0.1295 C   0  0  1  0  0  0  0  0  0  0  0  0
    1.4557    0.9786    1.2981 C   0  0  1  0  0  0  0  0  0  0  0  0
    0.8507    2.5586   -2.0674 C   0  0  0  0  0  0  0  0  0  0  0  0
    0.9285    3.5429    0.3398 C   0  0  0  0  0  0  0  0  0  0  0  0
   -0.0027    1.4321    1.4558 C   0  0  1  0  0  0  0  0  0  0  0  0
   -0.1895    2.9334    1.1910 C   0  0  0  0  0  0  0  0  0  0  0  0
    4.1360    2.5642    0.5284 C   0  0  0  0  0  0  0  0  0  0  0  0
    3.7339   -1.2487   -0.2573 C   0  0  0  0  0  0  0  0  0  0  0  0
    4.5027   -2.2413   -1.0967 C   0  0  0  0  0  0  0  0  0  0  0  0
    1.4349   -0.6823    2.9561 C   0  0  0  0  0  0  0  0  0  0  0  0
   -2.1239    0.4608    0.9998 C   0  0  0  0  0  0  0  0  0  0  0  0
    5.3740   -3.1771   -0.6745 C   0  0  0  0  0  0  0  0  0  0  0  0
    6.1077   -4.1371   -1.5676 C   0  0  0  0  0  0  0  0  0  0  0  0
    5.6720   -3.3371    0.7924 C   0  0  0  0  0  0  0  0  0  0  0  0
   -4.1971   -0.6661    0.2043 C   0  0  2  0  0  0  0  0  0  0  0  0
   -4.4054   -2.2061    0.1604 C   0  0  0  0  0  0  0  0  0  0  0  0
   -4.9529    0.0962   -0.8722 C   0  0  0  0  0  0  0  0  0  0  0  0
   -4.6965   -2.7262   -1.2603 C   0  0  0  0  0  0  0  0  0  0  0  0
   -3.1373   -2.9116    0.6874 C   0  0  0  0  0  0  0  0  0  0  0  0
   -5.5805   -2.6065    1.0755 C   0  0  0  0  0  0  0  0  0  0  0  0
   -7.1331    0.5483   -1.6742 C   0  0  0  0  0  0  0  0  0  0  0  0
    1.7094    0.4693   -0.7840 H   0  0  0  0  0  0  0  0  0  0  0  0
    5.3437    0.0630    0.3361 H   0  0  0  0  0  0  0  0  0  0  0  0
    2.0571    1.5093    2.0468 H   0  0  0  0  0  0  0  0  0  0  0  0
    0.8387    1.6383   -2.6372 H   0  0  0  0  0  0  0  0  0  0  0  0
    0.0332    3.2326   -2.2903 H   0  0  0  0  0  0  0  0  0  0  0  0
    0.5595    4.4563   -0.1427 H   0  0  0  0  0  0  0  0  0  0  0  0
    1.7473    3.8604    0.9941 H   0  0  0  0  0  0  0  0  0  0  0  0
   -0.3189    1.2440    2.4874 H   0  0  0  0  0  0  0  0  0  0  0  0
   -0.2207    3.4764    2.1436 H   0  0  0  0  0  0  0  0  0  0  0  0
   -1.1516    3.1142    0.6958 H   0  0  0  0  0  0  0  0  0  0  0  0
    3.7829    2.7462    1.5471 H   0  0  0  0  0  0  0  0  0  0  0  0
    3.9390    3.4561   -0.0722 H   0  0  0  0  0  0  0  0  0  0  0  0
    5.2277    2.4802    0.5946 H   0  0  0  0  0  0  0  0  0  0  0  0
    3.5631   -1.6559    0.7437 H   0  0  0  0  0  0  0  0  0  0  0  0
    2.7421   -1.2131   -0.7156 H   0  0  0  0  0  0  0  0  0  0  0  0
    4.3222   -2.1655   -2.1682 H   0  0  0  0  0  0  0  0  0  0  0  0
    2.1666   -0.0944    3.5194 H   0  0  0  0  0  0  0  0  0  0  0  0
    0.4269   -0.5192    3.3447 H   0  0  0  0  0  0  0  0  0  0  0  0
    1.6715   -1.7398    3.1087 H   0  0  0  0  0  0  0  0  0  0  0  0
   -2.3391   -0.4932   -0.8129 H   0  0  0  0  0  0  0  0  0  0  0  0
    5.8376   -3.9959   -2.6193 H   0  0  0  0  0  0  0  0  0  0  0  0
    5.8673   -5.1700   -1.2961 H   0  0  0  0  0  0  0  0  0  0  0  0
    7.1892   -3.9930   -1.4777 H   0  0  0  0  0  0  0  0  0  0  0  0
    5.3745   -2.4861    1.4088 H   0  0  0  0  0  0  0  0  0  0  0  0
    6.7516   -3.4537    0.9421 H   0  0  0  0  0  0  0  0  0  0  0  0
    5.1781   -4.2343    1.1797 H   0  0  0  0  0  0  0  0  0  0  0  0
   -4.5453   -0.2728    1.1678 H   0  0  0  0  0  0  0  0  0  0  0  0
   -3.9226   -2.4023   -1.9652 H   0  0  0  0  0  0  0  0  0  0  0  0
   -5.6671   -2.3931   -1.6400 H   0  0  0  0  0  0  0  0  0  0  0  0
   -4.7136   -3.8226   -1.2770 H   0  0  0  0  0  0  0  0  0  0  0  0
   -2.2806   -2.7755    0.0181 H   0  0  0  0  0  0  0  0  0  0  0  0
   -3.2998   -3.9929    0.7725 H   0  0  0  0  0  0  0  0  0  0  0  0
   -2.8619   -2.5476    1.6839 H   0  0  0  0  0  0  0  0  0  0  0  0
   -6.5249   -2.1630    0.7462 H   0  0  0  0  0  0  0  0  0  0  0  0
   -5.7189   -3.6939    1.0867 H   0  0  0  0  0  0  0  0  0  0  0  0
   -5.4034   -2.2873    2.1089 H   0  0  0  0  0  0  0  0  0  0  0  0
   -6.9972    1.6331   -1.6283 H   0  0  0  0  0  0  0  0  0  0  0  0
   -6.9132    0.1725   -2.6780 H   0  0  0  0  0  0  0  0  0  0  0  0
   -8.1730    0.3140   -1.4319 H   0  0  0  0  0  0  0  0  0  0  0  0
  1 11  1  0  0  0  0
  1 12  1  0  0  0  0
  2 10  1  0  0  0  0
  2 14  1  0  0  0  0
  3 13  1  0  0  0  0
  3 21  1  0  0  0  0
  4 16  1  0  0  0  0
  4 22  1  0  0  0  0
  5 22  2  0  0  0  0
  6 28  1  0  0  0  0
  6 32  1  0  0  0  0
  7 28  2  0  0  0  0
  8 22  1  0  0  0  0
  8 26  1  0  0  0  0
  8 52  1  0  0  0  0
  9 10  1  0  0  0  0
  9 11  1  0  0  0  0
  9 13  1  0  0  0  0
  9 33  1  0  0  0  0
 10 14  1  0  0  0  0
 10 15  1  0  0  0  0
 11 12  1  0  0  0  0
 11 18  1  0  0  0  0
 12 19  1  0  0  0  0
 12 34  1  0  0  0  0
 13 16  1  0  0  0  0
 13 35  1  0  0  0  0
 14 36  1  0  0  0  0
 14 37  1  0  0  0  0
 15 17  1  0  0  0  0
 15 38  1  0  0  0  0
 15 39  1  0  0  0  0
 16 17  1  0  0  0  0
 16 40  1  0  0  0  0
 17 41  1  0  0  0  0
 17 42  1  0  0  0  0
 18 43  1  0  0  0  0
 18 44  1  0  0  0  0
 18 45  1  0  0  0  0
 19 20  1  0  0  0  0
 19 46  1  0  0  0  0
 19 47  1  0  0  0  0
 20 23  2  0  0  0  0
 20 48  1  0  0  0  0
 21 49  1  0  0  0  0
 21 50  1  0  0  0  0
 21 51  1  0  0  0  0
 23 24  1  0  0  0  0
 23 25  1  0  0  0  0
 24 53  1  0  0  0  0
 24 54  1  0  0  0  0
 24 55  1  0  0  0  0
 25 56  1  0  0  0  0
 25 57  1  0  0  0  0
 25 58  1  0  0  0  0
 26 27  1  0  0  0  0
 26 28  1  0  0  0  0
 26 59  1  0  0  0  0
 27 29  1  0  0  0  0
 27 30  1  0  0  0  0
 27 31  1  0  0  0  0
 29 60  1  0  0  0  0
 29 61  1  0  0  0  0
 29 62  1  0  0  0  0
 30 63  1  0  0  0  0
 30 64  1  0  0  0  0
 30 65  1  0  0  0  0
 31 66  1  0  0  0  0
 31 67  1  0  0  0  0
 31 68  1  0  0  0  0
 32 69  1  0  0  0  0
 32 70  1  0  0  0  0
 32 71  1  0  0  0  0
M  END
> <PUBCHEM_COMPOUND_CID>
10115055

> <PUBCHEM_CONFORMER_RMSD>
1.2

> <PUBCHEM_CONFORMER_DIVERSEORDER>
1
67
32
23
72
76
52
27
51
75
59
58
15
50
28
29
21
47
61
19
45
68
71
33
34
70
41
60
35
24
3
22
65
40
17
54
66
64
26
14
56
12
77
16
42
39
9
74
30
43
62
55
37
2
38
31
18
25
73
11
20
8
36
57
6
7
69
44
5
49
10
46
4
53
13
63
48

> <PUBCHEM_MMFF94_PARTIAL_CHARGES>
32
1 -0.3
10 -0.04
11 -0.04
12 -0.05
13 0.28
14 -0.05
15 0.09
16 0.28
18 0.09
19 0.23
2 -0.3
20 -0.29
21 0.28
22 0.78
23 -0.28
24 0.14
25 0.14
26 0.36
28 0.66
3 -0.56
32 0.28
34 0.1
36 0.1
37 0.1
4 -0.43
48 0.15
5 -0.57
52 0.37
6 -0.43
7 -0.57
8 -0.73
9 0.19

> <PUBCHEM_EFFECTIVE_ROTOR_COUNT>
13

> <PUBCHEM_PHARMACOPHORE_FEATURES>
9
1 1 acceptor
1 2 acceptor
1 3 acceptor
1 5 acceptor
1 7 acceptor
1 8 donor
3 23 24 25 hydrophobe
4 27 29 30 31 hydrophobe
6 9 10 13 15 16 17 rings

> <PUBCHEM_HEAVY_ATOM_COUNT>
32

> <PUBCHEM_ATOM_DEF_STEREO_COUNT>
7

> <PUBCHEM_ATOM_UDEF_STEREO_COUNT>
0

> <PUBCHEM_BOND_DEF_STEREO_COUNT>
0

> <PUBCHEM_BOND_UDEF_STEREO_COUNT>
0

> <PUBCHEM_ISOTOPIC_ATOM_COUNT>
0

> <PUBCHEM_COMPONENT_COUNT>
1

> <PUBCHEM_CACTVS_TAUTO_COUNT>
2

> <PUBCHEM_CONFORMER_ID>
009A57EF00000001

> <PUBCHEM_MMFF94_ENERGY>
84.4396

> <PUBCHEM_FEATURE_SELFOVERLAP>
45.674

> <PUBCHEM_SHAPE_FINGERPRINT>
10928967 22 17556305299737735495
11720765 8 18412542132604310064
14848178 5 18272649009334038298
16989378 47 18128279864448070734
17909252 39 18268155442307062784
19438510 23 11531068282266955974
20775530 9 18411984646181436406
21033650 10 17168707423128792797
21315764 119 18335134302754408637
21401589 2 10159109716026203604
22393880 68 18115015441879833673
23559900 14 18411974793742334323
23569914 152 18125692658006832391
25222932 49 17128734905481080621
2838139 119 11098149889650746642
32027 91 18343298158735432395
3459 83 18341338803629819873
4280585 95 18263639572543930026
46194498 28 17823420585626826389
513532 50 18187075192202367032

> <PUBCHEM_SHAPE_MULTIPOLES>
612.48
15.51
4.97
2.03
11.67
1.87
0.4
16.2
-6.66
-6.41
-1.1
0.24
-0.27
1.43

> <PUBCHEM_SHAPE_SELFOVERLAP>
1247.573

> <PUBCHEM_SHAPE_VOLUME>
355.5

> <PUBCHEM_COORDINATE_TYPE>
2
5
10

$$$$
