10141653
  -OEChem-02172602533D

 67 70  0     1  0  0  0  0  0999 V2000
    0.9352    2.1817    1.1455 F   0  0  0  0  0  0  0  0  0  0  0  0
   -9.1914    1.2456    0.4225 O   0  0  0  0  0  0  0  0  0  0  0  0
    7.3241    1.0995    0.1747 O   0  0  0  0  0  0  0  0  0  0  0  0
    5.6768    2.3061    1.1618 O   0  0  0  0  0  0  0  0  0  0  0  0
   10.3262   -2.1803   -0.6742 O   0  0  0  0  0  0  0  0  0  0  0  0
   -7.3520    0.0767   -0.3778 N   0  0  0  0  0  0  0  0  0  0  0  0
   -4.5320    0.1217   -0.4665 N   0  0  0  0  0  0  0  0  0  0  0  0
    5.1985    0.4958   -0.2846 N   0  0  0  0  0  0  0  0  0  0  0  0
   -2.4967   -0.9251   -0.0005 N   0  0  0  0  0  0  0  0  0  0  0  0
   -2.5694    1.3269   -0.8549 N   0  0  0  0  0  0  0  0  0  0  0  0
    9.1285   -1.0183    0.9512 N   0  0  0  0  0  0  0  0  0  0  0  0
   -6.6708    1.2720   -0.8688 C   0  0  0  0  0  0  0  0  0  0  0  0
   -6.6231   -1.1678   -0.6297 C   0  0  0  0  0  0  0  0  0  0  0  0
   -9.2191   -1.1055    0.7204 C   0  0  0  0  0  0  0  0  0  0  0  0
   -5.2699    1.3799   -0.2708 C   0  0  0  0  0  0  0  0  0  0  0  0
   -5.2186   -1.1019   -0.0302 C   0  0  0  0  0  0  0  0  0  0  0  0
   -8.5938    0.1812    0.2444 C   0  0  0  0  0  0  0  0  0  0  0  0
  -10.5649   -0.7864    1.3731 C   0  0  0  0  0  0  0  0  0  0  0  0
   -9.4162   -2.0306   -0.4813 C   0  0  0  0  0  0  0  0  0  0  0  0
   -8.2687   -1.7408    1.7355 C   0  0  0  0  0  0  0  0  0  0  0  0
   -3.1339    0.1771   -0.4393 C   0  0  0  0  0  0  0  0  0  0  0  0
    7.4084   -0.1415   -0.5398 C   0  0  2  0  0  0  0  0  0  0  0  0
    6.0238   -0.3355   -1.1194 C   0  0  0  0  0  0  0  0  0  0  0  0
    7.8116   -1.2419    0.4320 C   0  0  0  0  0  0  0  0  0  0  0  0
    3.7755    0.4432   -0.3096 C   0  0  0  0  0  0  0  0  0  0  0  0
    6.0007    1.3820    0.4293 C   0  0  0  0  0  0  0  0  0  0  0  0
   -0.4514    0.2834   -0.3872 C   0  0  0  0  0  0  0  0  0  0  0  0
    0.9882    0.3406   -0.3589 C   0  0  0  0  0  0  0  0  0  0  0  0
   -1.1504   -0.8372    0.0126 C   0  0  0  0  0  0  0  0  0  0  0  0
   -1.2209    1.3458   -0.8156 C   0  0  0  0  0  0  0  0  0  0  0  0
    3.0308    1.3521    0.4421 C   0  0  0  0  0  0  0  0  0  0  0  0
    3.1265   -0.5169   -1.0858 C   0  0  0  0  0  0  0  0  0  0  0  0
    1.6371    1.3007    0.4174 C   0  0  0  0  0  0  0  0  0  0  0  0
    1.7329   -0.5682   -1.1106 C   0  0  0  0  0  0  0  0  0  0  0  0
   10.2847   -1.5082    0.3529 C   0  0  0  0  0  0  0  0  0  0  0  0
   11.5340   -1.1060    1.0900 C   0  0  0  0  0  0  0  0  0  0  0  0
   -6.6156    1.1883   -1.9610 H   0  0  0  0  0  0  0  0  0  0  0  0
   -7.2449    2.1744   -0.6366 H   0  0  0  0  0  0  0  0  0  0  0  0
   -7.0816   -2.0916   -0.3144 H   0  0  0  0  0  0  0  0  0  0  0  0
   -6.5372   -1.2462   -1.7223 H   0  0  0  0  0  0  0  0  0  0  0  0
   -5.3339    1.5915    0.8040 H   0  0  0  0  0  0  0  0  0  0  0  0
   -4.7763    2.2336   -0.7485 H   0  0  0  0  0  0  0  0  0  0  0  0
   -4.6803   -1.9986   -0.3603 H   0  0  0  0  0  0  0  0  0  0  0  0
   -5.2647   -1.1200    1.0651 H   0  0  0  0  0  0  0  0  0  0  0  0
  -10.4475   -0.1237    2.2390 H   0  0  0  0  0  0  0  0  0  0  0  0
  -11.2504   -0.2940    0.6728 H   0  0  0  0  0  0  0  0  0  0  0  0
  -11.0571   -1.7008    1.7245 H   0  0  0  0  0  0  0  0  0  0  0  0
  -10.4880   -2.1773   -0.6731 H   0  0  0  0  0  0  0  0  0  0  0  0
   -9.0278   -1.6441   -1.4293 H   0  0  0  0  0  0  0  0  0  0  0  0
   -9.0260   -3.0422   -0.3244 H   0  0  0  0  0  0  0  0  0  0  0  0
   -7.4728   -1.0661    2.0703 H   0  0  0  0  0  0  0  0  0  0  0  0
   -7.8167   -2.6870    1.4232 H   0  0  0  0  0  0  0  0  0  0  0  0
   -8.8177   -2.0052    2.6496 H   0  0  0  0  0  0  0  0  0  0  0  0
    8.1528   -0.0411   -1.3377 H   0  0  0  0  0  0  0  0  0  0  0  0
    5.9711    0.0542   -2.1425 H   0  0  0  0  0  0  0  0  0  0  0  0
    5.7230   -1.3870   -1.1065 H   0  0  0  0  0  0  0  0  0  0  0  0
    7.1383   -1.2722    1.2957 H   0  0  0  0  0  0  0  0  0  0  0  0
    7.7850   -2.2186   -0.0633 H   0  0  0  0  0  0  0  0  0  0  0  0
   -0.6468   -1.7295    0.3729 H   0  0  0  0  0  0  0  0  0  0  0  0
   -0.7759    2.2757   -1.1574 H   0  0  0  0  0  0  0  0  0  0  0  0
    3.4685    2.1197    1.0654 H   0  0  0  0  0  0  0  0  0  0  0  0
    3.6630   -1.2377   -1.6941 H   0  0  0  0  0  0  0  0  0  0  0  0
    9.2135   -0.4552    1.7926 H   0  0  0  0  0  0  0  0  0  0  0  0
    1.2464   -1.3201   -1.7278 H   0  0  0  0  0  0  0  0  0  0  0  0
   11.4054   -1.2508    2.1665 H   0  0  0  0  0  0  0  0  0  0  0  0
   12.3735   -1.7204    0.7531 H   0  0  0  0  0  0  0  0  0  0  0  0
   11.7516   -0.0539    0.8875 H   0  0  0  0  0  0  0  0  0  0  0  0
  1 33  1  0  0  0  0
  2 17  2  0  0  0  0
  3 22  1  0  0  0  0
  3 26  1  0  0  0  0
  4 26  2  0  0  0  0
  5 35  2  0  0  0  0
  6 12  1  0  0  0  0
  6 13  1  0  0  0  0
  6 17  1  0  0  0  0
  7 15  1  0  0  0  0
  7 16  1  0  0  0  0
  7 21  1  0  0  0  0
  8 23  1  0  0  0  0
  8 25  1  0  0  0  0
  8 26  1  0  0  0  0
  9 21  2  0  0  0  0
  9 29  1  0  0  0  0
 10 21  1  0  0  0  0
 10 30  2  0  0  0  0
 11 24  1  0  0  0  0
 11 35  1  0  0  0  0
 11 63  1  0  0  0  0
 12 15  1  0  0  0  0
 12 37  1  0  0  0  0
 12 38  1  0  0  0  0
 13 16  1  0  0  0  0
 13 39  1  0  0  0  0
 13 40  1  0  0  0  0
 14 17  1  0  0  0  0
 14 18  1  0  0  0  0
 14 19  1  0  0  0  0
 14 20  1  0  0  0  0
 15 41  1  0  0  0  0
 15 42  1  0  0  0  0
 16 43  1  0  0  0  0
 16 44  1  0  0  0  0
 18 45  1  0  0  0  0
 18 46  1  0  0  0  0
 18 47  1  0  0  0  0
 19 48  1  0  0  0  0
 19 49  1  0  0  0  0
 19 50  1  0  0  0  0
 20 51  1  0  0  0  0
 20 52  1  0  0  0  0
 20 53  1  0  0  0  0
 22 23  1  0  0  0  0
 22 24  1  0  0  0  0
 22 54  1  0  0  0  0
 23 55  1  0  0  0  0
 23 56  1  0  0  0  0
 24 57  1  0  0  0  0
 24 58  1  0  0  0  0
 25 31  2  0  0  0  0
 25 32  1  0  0  0  0
 27 28  1  0  0  0  0
 27 29  2  0  0  0  0
 27 30  1  0  0  0  0
 28 33  2  0  0  0  0
 28 34  1  0  0  0  0
 29 59  1  0  0  0  0
 30 60  1  0  0  0  0
 31 33  1  0  0  0  0
 31 61  1  0  0  0  0
 32 34  2  0  0  0  0
 32 62  1  0  0  0  0
 34 64  1  0  0  0  0
 35 36  1  0  0  0  0
 36 65  1  0  0  0  0
 36 66  1  0  0  0  0
 36 67  1  0  0  0  0
M  END
> <PUBCHEM_COMPOUND_CID>
10141653

> <PUBCHEM_CONFORMER_RMSD>
1.2

> <PUBCHEM_CONFORMER_DIVERSEORDER>
1
16
10
3
6
18
12
8
23
20
22
9
15
13
14
5
24
17
21
7
4
11
2
19

> <PUBCHEM_MMFF94_PARTIAL_CHARGES>
37
1 -0.19
10 -0.62
11 -0.73
12 0.3
13 0.3
14 0.06
15 0.37
16 0.37
17 0.57
2 -0.57
21 0.72
22 0.28
23 0.3
24 0.3
25 0.12
26 0.78
29 0.16
3 -0.43
30 0.16
31 -0.15
32 -0.15
33 0.19
34 -0.15
35 0.57
36 0.06
4 -0.57
5 -0.57
59 0.15
6 -0.66
60 0.15
61 0.15
62 0.15
63 0.37
64 0.15
7 -0.84
8 -0.48
9 -0.62

> <PUBCHEM_EFFECTIVE_ROTOR_COUNT>
10

> <PUBCHEM_PHARMACOPHORE_FEATURES>
11
1 10 acceptor
1 11 donor
1 2 acceptor
1 4 acceptor
1 5 acceptor
4 14 18 19 20 hydrophobe
4 7 9 10 21 cation
5 3 8 22 23 26 rings
6 25 28 31 32 33 34 rings
6 6 7 12 13 15 16 rings
6 9 10 21 27 29 30 rings

> <PUBCHEM_HEAVY_ATOM_COUNT>
36

> <PUBCHEM_ATOM_DEF_STEREO_COUNT>
1

> <PUBCHEM_ATOM_UDEF_STEREO_COUNT>
0

> <PUBCHEM_BOND_DEF_STEREO_COUNT>
0

> <PUBCHEM_BOND_UDEF_STEREO_COUNT>
0

> <PUBCHEM_ISOTOPIC_ATOM_COUNT>
0

> <PUBCHEM_COMPONENT_COUNT>
1

> <PUBCHEM_CACTVS_TAUTO_COUNT>
2

> <PUBCHEM_CONFORMER_ID>
009ABFD500000001

> <PUBCHEM_MMFF94_ENERGY>
127.245

> <PUBCHEM_FEATURE_SELFOVERLAP>
55.822

> <PUBCHEM_SHAPE_FINGERPRINT>
10533779 47 18202013113779888939
11061554 47 12175630559796433811
11408170 108 17417819379774072934
11456790 92 17918276454234626368
11534866 41 18335140861449706802
11638347 137 18408322185891861758
12089408 11 17894634764231414989
12498461 61 18413102883940761815
12522641 33 11169907282174908744
12539745 222 18335983069132131149
12664476 115 10952046741697436762
12741549 16 18201999919656524784
13553643 46 13973968701406719203
14202775 3 18260833687326013578
14251764 46 17989205945448226358
14344974 52 12107799514478232758
15065858 18 18186796993526294492
15247644 1 17603586326729931338
15289351 153 18272365339391721353
15461852 350 15936406750312523375
15510794 2 18259706709608277914
155225 1 11671782667312787739
15840311 113 17313390071496126236
16728433 110 18410570709168135884
1754911 235 12540699227690989826
1818759 1 17385444332254147531
18608769 82 18410855486742017101
20105231 36 18333452062490227323
21095086 128 17385441016554978642
21362267 20 18339922722944009943
21362267 313 13038919785430072638
21792934 111 17703502243250022504
21792961 116 18411695470644706189
21792965 68 18200031730520783861
232437 2 18113900455242342230
24771293 8 9223239567801626599
306946 40 11167941346720287098
3092352 35 17022624177995403602
3178227 256 17989209265057091173
395649 100 10447920669294934197
4017518 198 15213022648282084169
44426699 60 18114188540933416126
45377200 153 16950289545866598971
5381727 24 18259984876911960210
5719381 82 18335138687599396026
5937810 71 8718286632833196527
59521270 166 17095235905880085103
6201320 215 16701745926208818945
636775 8 16732989743545173267
6691757 9 15791741789428118137
9937071 3 18201722830447597198

> <PUBCHEM_SHAPE_MULTIPOLES>
680.23
42.9
1.93
1.13
16.47
0.05
0.16
-24
11.31
0.43
0.35
-0.22
-0.11
1.28

> <PUBCHEM_SHAPE_SELFOVERLAP>
1456.933

> <PUBCHEM_SHAPE_VOLUME>
378.2

> <PUBCHEM_COORDINATE_TYPE>
2
5
10

$$$$
