10183148
  -OEChem-02172602533D

 51 54  0     1  0  0  0  0  0999 V2000
    3.0481    0.0094   -0.3699 O   0  0  0  0  0  0  0  0  0  0  0  0
    2.1700   -0.9528    1.5656 O   0  0  0  0  0  0  0  0  0  0  0  0
    6.2704    1.5206    1.6806 O   0  0  0  0  0  0  0  0  0  0  0  0
    3.8357    0.7122    3.1270 O   0  0  0  0  0  0  0  0  0  0  0  0
    5.5580    2.6131   -0.9169 O   0  0  0  0  0  0  0  0  0  0  0  0
    4.3094    1.7494   -3.1463 O   0  0  0  0  0  0  0  0  0  0  0  0
    3.4526   -0.3443   -2.8661 O   0  0  0  0  0  0  0  0  0  0  0  0
   -2.3287    0.1897    0.5891 O   0  0  0  0  0  0  0  0  0  0  0  0
    1.8423   -3.4270    0.3723 O   0  0  0  0  0  0  0  0  0  0  0  0
   -0.5584   -4.1216   -0.7235 O   0  0  0  0  0  0  0  0  0  0  0  0
   -3.0195   -3.3997   -1.2101 O   0  0  0  0  0  0  0  0  0  0  0  0
   -3.9610    1.9324   -1.9223 O   0  0  0  0  0  0  0  0  0  0  0  0
    4.9441    1.5415    1.1507 C   0  0  2  0  0  0  0  0  0  0  0  0
    4.1307    0.4021    1.7653 C   0  0  2  0  0  0  0  0  0  0  0  0
    5.0399    1.4021   -0.3689 C   0  0  1  0  0  0  0  0  0  0  0  0
    2.8097    0.2015    1.0222 C   0  0  1  0  0  0  0  0  0  0  0  0
    3.6669    1.1391   -0.9746 C   0  0  1  0  0  0  0  0  0  0  0  0
    3.7826    0.7405   -2.4103 C   0  0  0  0  0  0  0  0  0  0  0  0
    0.9694   -1.3002    1.0185 C   0  0  0  0  0  0  0  0  0  0  0  0
   -0.0916   -0.3955    1.0673 C   0  0  0  0  0  0  0  0  0  0  0  0
    0.7995   -2.5471    0.4151 C   0  0  0  0  0  0  0  0  0  0  0  0
   -1.3234   -0.7405    0.5106 C   0  0  0  0  0  0  0  0  0  0  0  0
   -1.4913   -1.9863   -0.0915 C   0  0  0  0  0  0  0  0  0  0  0  0
   -0.4316   -2.8951   -0.1421 C   0  0  0  0  0  0  0  0  0  0  0  0
   -2.8009   -2.3244   -0.6693 C   0  0  0  0  0  0  0  0  0  0  0  0
   -3.5618   -0.1223    0.0375 C   0  0  0  0  0  0  0  0  0  0  0  0
   -3.8483   -1.2889   -0.5621 C   0  0  0  0  0  0  0  0  0  0  0  0
   -4.5714    0.9457    0.1822 C   0  0  0  0  0  0  0  0  0  0  0  0
   -4.7333    1.9293   -0.7984 C   0  0  0  0  0  0  0  0  0  0  0  0
   -5.3789    0.9706    1.3233 C   0  0  0  0  0  0  0  0  0  0  0  0
   -5.6935    2.9284   -0.6390 C   0  0  0  0  0  0  0  0  0  0  0  0
   -6.3391    1.9696    1.4826 C   0  0  0  0  0  0  0  0  0  0  0  0
   -6.4964    2.9485    0.5014 C   0  0  0  0  0  0  0  0  0  0  0  0
    4.5163    2.5146    1.4228 H   0  0  0  0  0  0  0  0  0  0  0  0
    4.7121   -0.5284    1.7644 H   0  0  0  0  0  0  0  0  0  0  0  0
    5.7452    0.6021   -0.6258 H   0  0  0  0  0  0  0  0  0  0  0  0
    2.1699    1.0805    1.1762 H   0  0  0  0  0  0  0  0  0  0  0  0
    2.9954    2.0046   -0.9140 H   0  0  0  0  0  0  0  0  0  0  0  0
    6.2098    1.6964    2.6346 H   0  0  0  0  0  0  0  0  0  0  0  0
    4.6778    0.7467    3.6110 H   0  0  0  0  0  0  0  0  0  0  0  0
    4.9390    3.3312   -0.7006 H   0  0  0  0  0  0  0  0  0  0  0  0
    0.0222    0.5708    1.5512 H   0  0  0  0  0  0  0  0  0  0  0  0
    4.3953    1.5064   -4.0927 H   0  0  0  0  0  0  0  0  0  0  0  0
   -4.8248   -1.5092   -0.9786 H   0  0  0  0  0  0  0  0  0  0  0  0
    2.6107   -3.0134    0.8029 H   0  0  0  0  0  0  0  0  0  0  0  0
   -1.4530   -4.2444   -1.0754 H   0  0  0  0  0  0  0  0  0  0  0  0
   -5.2691    0.2158    2.0986 H   0  0  0  0  0  0  0  0  0  0  0  0
   -5.8214    3.6942   -1.3992 H   0  0  0  0  0  0  0  0  0  0  0  0
   -6.9642    1.9856    2.3706 H   0  0  0  0  0  0  0  0  0  0  0  0
   -7.2441    3.7265    0.6255 H   0  0  0  0  0  0  0  0  0  0  0  0
   -3.3056    1.2174   -1.8925 H   0  0  0  0  0  0  0  0  0  0  0  0
  1 16  1  0  0  0  0
  1 17  1  0  0  0  0
  2 16  1  0  0  0  0
  2 19  1  0  0  0  0
  3 13  1  0  0  0  0
  3 39  1  0  0  0  0
  4 14  1  0  0  0  0
  4 40  1  0  0  0  0
  5 15  1  0  0  0  0
  5 41  1  0  0  0  0
  6 18  1  0  0  0  0
  6 43  1  0  0  0  0
  7 18  2  0  0  0  0
  8 22  1  0  0  0  0
  8 26  1  0  0  0  0
  9 21  1  0  0  0  0
  9 45  1  0  0  0  0
 10 24  1  0  0  0  0
 10 46  1  0  0  0  0
 11 25  2  0  0  0  0
 12 29  1  0  0  0  0
 12 51  1  0  0  0  0
 13 14  1  0  0  0  0
 13 15  1  0  0  0  0
 13 34  1  0  0  0  0
 14 16  1  0  0  0  0
 14 35  1  0  0  0  0
 15 17  1  0  0  0  0
 15 36  1  0  0  0  0
 16 37  1  0  0  0  0
 17 18  1  0  0  0  0
 17 38  1  0  0  0  0
 19 20  1  0  0  0  0
 19 21  2  0  0  0  0
 20 22  2  0  0  0  0
 20 42  1  0  0  0  0
 21 24  1  0  0  0  0
 22 23  1  0  0  0  0
 23 24  2  0  0  0  0
 23 25  1  0  0  0  0
 25 27  1  0  0  0  0
 26 27  2  0  0  0  0
 26 28  1  0  0  0  0
 27 44  1  0  0  0  0
 28 29  1  0  0  0  0
 28 30  2  0  0  0  0
 29 31  2  0  0  0  0
 30 32  1  0  0  0  0
 30 47  1  0  0  0  0
 31 33  1  0  0  0  0
 31 48  1  0  0  0  0
 32 33  2  0  0  0  0
 32 49  1  0  0  0  0
 33 50  1  0  0  0  0
M  END
> <PUBCHEM_COMPOUND_CID>
10183148

> <PUBCHEM_CONFORMER_RMSD>
0.8

> <PUBCHEM_CONFORMER_DIVERSEORDER>
1
158
183
115
11
184
168
164
150
146
196
185
221
202
53
213
223
18
29
10
144
206
207
86
216
162
204
177
119
199
49
161
192
163
94
170
118
169
176
61
83
14
38
209
174
171
134
220
4
214
65
180
95
91
160
189
104
99
103
42
37
46
128
78
215
8
139
188
64
133
173
22
200
112
218
186
90
212
178
219
138
12
16
26
126
141
58
123
224
19
194
154
107
167
44
197
205
75
222
40
17
210
25
76
179
2
136
198
159
131
98
93
81
79
13
7
106
195
24
181
166
165
3
60
82
120
145
193
151
9
51
48
100
156
127
135
5
203
190
116
35
132
140
6
97
87
117
122
55
121
50
72
113
124
85
110
101
130
191
142
88
143
67
96
52
28
114
201
109
27
56
33
63
108
71
15
148
30
172
125
111
175
211
149
137
34
80
36
31
73
129
74
147
62
59
92
70
43
20
153
32
23
182
66
45
57
105
54
152
47
217
102
41
21
84
69
68
77
157
187
208
89
155
39

> <PUBCHEM_MMFF94_PARTIAL_CHARGES>
46
1 -0.56
10 -0.53
11 -0.57
12 -0.53
13 0.28
14 0.28
15 0.28
16 0.56
17 0.34
18 0.66
19 0.08
2 -0.36
20 -0.15
21 0.08
22 0.08
23 0.09
24 0.08
25 0.47
26 0.05
27 -0.14
28 0.03
29 0.08
3 -0.68
30 -0.15
31 -0.15
32 -0.15
33 -0.15
39 0.4
4 -0.68
40 0.4
41 0.4
42 0.15
43 0.5
44 0.15
45 0.45
46 0.45
47 0.15
48 0.15
49 0.15
5 -0.68
50 0.15
51 0.45
6 -0.65
7 -0.57
8 -0.16
9 -0.53

> <PUBCHEM_EFFECTIVE_ROTOR_COUNT>
5.2

> <PUBCHEM_PHARMACOPHORE_FEATURES>
20
1 1 acceptor
1 10 donor
1 11 acceptor
1 12 donor
1 2 acceptor
1 3 acceptor
1 3 donor
1 4 acceptor
1 4 donor
1 5 acceptor
1 5 donor
1 6 acceptor
1 7 acceptor
1 8 acceptor
1 9 donor
3 6 7 18 anion
6 1 13 14 15 16 17 rings
6 19 20 21 22 23 24 rings
6 28 29 30 31 32 33 rings
6 8 22 23 25 26 27 rings

> <PUBCHEM_HEAVY_ATOM_COUNT>
33

> <PUBCHEM_ATOM_DEF_STEREO_COUNT>
5

> <PUBCHEM_ATOM_UDEF_STEREO_COUNT>
0

> <PUBCHEM_BOND_DEF_STEREO_COUNT>
0

> <PUBCHEM_BOND_UDEF_STEREO_COUNT>
0

> <PUBCHEM_ISOTOPIC_ATOM_COUNT>
0

> <PUBCHEM_COMPONENT_COUNT>
1

> <PUBCHEM_CACTVS_TAUTO_COUNT>
48

> <PUBCHEM_CONFORMER_ID>
009B61EC00000001

> <PUBCHEM_MMFF94_ENERGY>
105.7482

> <PUBCHEM_FEATURE_SELFOVERLAP>
101.674

> <PUBCHEM_SHAPE_FINGERPRINT>
105312 117 18272930531639466967
10615611 76 17749671890912550782
10721379 63 17986962834237992442
11062273 29 17985551048206879262
11720765 8 17630055849888101334
12390115 104 18273497892682791059
12422481 6 17531235111256972652
12633257 1 15357980100655568848
12788726 201 17319304494560482986
12975358 362 17899147014414816205
13075007 39 13334730267641921964
13540713 5 18197473213289724219
13617811 41 18123184877752330655
14294032 229 18339647853631229611
14747281 78 17059233453388492213
14747282 540 18044368336066436509
14790565 3 18410853295697032921
14848178 5 10663816339353427869
14950920 106 15719108046295191065
15163728 17 18410860949397495071
15183329 4 14189576300294687793
15297060 5 18341339937279971080
15513586 35 17679032740475109893
17134984 74 13613941319145226213
19304671 126 17346600742281443305
19377110 9 17458349671500790411
20764821 26 18116414002948021388
21033650 10 18194694876286436266
21302155 148 18334011679649227465
21756936 100 17823150075722734098
22122407 14 16516225414836729559
23559900 14 17844520016038044659
24771750 20 18200322026205007663
249057 25 17895184566836385491
25269216 80 16701438170775610077
3388396 114 17185875537056116405
3459 39 18338505408935239232
5219985 13 18410573977036510647
5223283 242 16987744323256387041
5252454 2 18411975845819229441
57724786 102 17022912293561142812
5951187 136 17846490440091264872
59682541 52 15554447349551280513
6034566 193 18410855460935250857
7808743 9 18411132558965792739
7970288 3 9583527511762682712
960060 61 15051730871923664457
9849439 229 18410289203519564043

> <PUBCHEM_SHAPE_MULTIPOLES>
608.69
15.68
4.05
2.27
5.03
3.05
-0.73
-18.57
1.09
2.79
-1.03
-3.64
-1.13
-1.11

> <PUBCHEM_SHAPE_SELFOVERLAP>
1345.692

> <PUBCHEM_SHAPE_VOLUME>
321.4

> <PUBCHEM_COORDINATE_TYPE>
2
5
10

$$$$
