10091886
  -OEChem-02172602533D

 28 31  0     0  0  0  0  0  0999 V2000
    0.9620   -3.3171    0.0001 Br  0  0  0  0  0  0  0  0  0  0  0  0
    0.9619    3.3172    0.0002 Br  0  0  0  0  0  0  0  0  0  0  0  0
   -1.3128   -1.4260   -0.0008 O   0  0  0  0  0  0  0  0  0  0  0  0
   -1.3129    1.4261   -0.0005 O   0  0  0  0  0  0  0  0  0  0  0  0
    2.2773   -0.7082    0.0004 C   0  0  0  0  0  0  0  0  0  0  0  0
    2.2773    0.7082    0.0003 C   0  0  0  0  0  0  0  0  0  0  0  0
   -0.1514   -0.6954   -0.0003 C   0  0  0  0  0  0  0  0  0  0  0  0
   -0.1514    0.6955   -0.0002 C   0  0  0  0  0  0  0  0  0  0  0  0
    1.0537   -1.3978    0.0002 C   0  0  0  0  0  0  0  0  0  0  0  0
    1.0537    1.3979    0.0000 C   0  0  0  0  0  0  0  0  0  0  0  0
   -2.4749   -0.6969   -0.0002 C   0  0  0  0  0  0  0  0  0  0  0  0
   -2.4750    0.6969   -0.0002 C   0  0  0  0  0  0  0  0  0  0  0  0
    3.5026   -1.3944    0.0005 C   0  0  0  0  0  0  0  0  0  0  0  0
    3.5025    1.3944    0.0000 C   0  0  0  0  0  0  0  0  0  0  0  0
    4.7102   -0.6958   -0.0001 C   0  0  0  0  0  0  0  0  0  0  0  0
    4.7101    0.6958   -0.0003 C   0  0  0  0  0  0  0  0  0  0  0  0
   -3.6799   -1.3985    0.0000 C   0  0  0  0  0  0  0  0  0  0  0  0
   -3.6800    1.3985    0.0001 C   0  0  0  0  0  0  0  0  0  0  0  0
   -4.8865   -0.6981    0.0004 C   0  0  0  0  0  0  0  0  0  0  0  0
   -4.8866    0.6979    0.0004 C   0  0  0  0  0  0  0  0  0  0  0  0
    3.5708   -2.4779    0.0006 H   0  0  0  0  0  0  0  0  0  0  0  0
    3.5707    2.4778   -0.0002 H   0  0  0  0  0  0  0  0  0  0  0  0
   -3.6874   -2.4849   -0.0002 H   0  0  0  0  0  0  0  0  0  0  0  0
   -3.6875    2.4849    0.0001 H   0  0  0  0  0  0  0  0  0  0  0  0
    5.6513   -1.2383   -0.0002 H   0  0  0  0  0  0  0  0  0  0  0  0
    5.6511    1.2383   -0.0007 H   0  0  0  0  0  0  0  0  0  0  0  0
   -5.8279   -1.2400    0.0006 H   0  0  0  0  0  0  0  0  0  0  0  0
   -5.8280    1.2396    0.0007 H   0  0  0  0  0  0  0  0  0  0  0  0
  1  9  1  0  0  0  0
  2 10  1  0  0  0  0
  3  7  1  0  0  0  0
  3 11  1  0  0  0  0
  4  8  1  0  0  0  0
  4 12  1  0  0  0  0
  5  6  1  0  0  0  0
  5  9  1  0  0  0  0
  5 13  2  0  0  0  0
  6 10  1  0  0  0  0
  6 14  2  0  0  0  0
  7  8  1  0  0  0  0
  7  9  2  0  0  0  0
  8 10  2  0  0  0  0
 11 12  1  0  0  0  0
 11 17  2  0  0  0  0
 12 18  2  0  0  0  0
 13 15  1  0  0  0  0
 13 21  1  0  0  0  0
 14 16  1  0  0  0  0
 14 22  1  0  0  0  0
 15 16  2  0  0  0  0
 15 25  1  0  0  0  0
 16 26  1  0  0  0  0
 17 19  1  0  0  0  0
 17 23  1  0  0  0  0
 18 20  1  0  0  0  0
 18 24  1  0  0  0  0
 19 20  2  0  0  0  0
 19 27  1  0  0  0  0
 20 28  1  0  0  0  0
M  END
> <PUBCHEM_COMPOUND_CID>
10091886

> <PUBCHEM_CONFORMER_RMSD>
0.6

> <PUBCHEM_CONFORMER_DIVERSEORDER>
1

> <PUBCHEM_MMFF94_PARTIAL_CHARGES>
26
1 -0.11
10 0.11
11 0.08
12 0.08
13 -0.15
14 -0.15
15 -0.15
16 -0.15
17 -0.15
18 -0.15
19 -0.15
2 -0.11
20 -0.15
21 0.15
22 0.15
23 0.15
24 0.15
25 0.15
26 0.15
27 0.15
28 0.15
3 -0.17
4 -0.17
7 0.08
8 0.08
9 0.11

> <PUBCHEM_EFFECTIVE_ROTOR_COUNT>
0.4

> <PUBCHEM_PHARMACOPHORE_FEATURES>
8
1 1 hydrophobe
1 2 hydrophobe
1 3 acceptor
1 4 acceptor
6 11 12 17 18 19 20 rings
6 3 4 7 8 11 12 rings
6 5 6 13 14 15 16 rings
6 5 6 7 8 9 10 rings

> <PUBCHEM_HEAVY_ATOM_COUNT>
20

> <PUBCHEM_ATOM_DEF_STEREO_COUNT>
0

> <PUBCHEM_ATOM_UDEF_STEREO_COUNT>
0

> <PUBCHEM_BOND_DEF_STEREO_COUNT>
0

> <PUBCHEM_BOND_UDEF_STEREO_COUNT>
0

> <PUBCHEM_ISOTOPIC_ATOM_COUNT>
0

> <PUBCHEM_COMPONENT_COUNT>
1

> <PUBCHEM_CACTVS_TAUTO_COUNT>
1

> <PUBCHEM_CONFORMER_ID>
0099FD6E00000001

> <PUBCHEM_MMFF94_ENERGY>
70.3438

> <PUBCHEM_FEATURE_SELFOVERLAP>
40.698

> <PUBCHEM_SHAPE_FINGERPRINT>
10411042 1 17690280404550205475
10616163 171 18411139173263531215
10906281 52 18264227875140198968
10967382 1 18410573976851835778
1100329 8 18267019642927720738
11471102 20 18410853265447352917
11578080 2 16735787827800350918
11806522 49 18410574006710742197
12107183 9 17690561883973734683
12236239 1 17847062181441319937
12403259 226 18337103557749147085
13140716 1 18266749171762620259
138480 1 17834113039617678243
13862211 1 18410569578652473810
14178342 30 17906721511172363882
14790565 3 18337679718985255564
15196674 1 18410575084663078916
15536298 74 18342457040803296646
1601671 61 18411419501161752728
16945 1 18410854343658210913
1813 80 17168145632879611412
18681886 176 18340763832068185746
19591789 44 18411135823019975470
200 152 18131348618380309139
20028762 73 18129659845608976503
20645477 70 18339642248166099830
20905425 154 18053102818171971054
21029758 11 18412824694096613105
21267235 1 18411145726940142958
21279426 13 18265895756933135943
21421861 104 17827077307718495098
221490 88 18263932209823599059
2334 1 18410856594553389892
23402539 116 18343576352636638806
23559900 14 18412821417047115864
2748010 2 18410575093822693300
2871803 45 18408601431263548694
3004659 81 18259988146304829150
335352 9 18410573950828642965
34934 24 18338793408368030207
350125 39 18265901439681309297
3545911 37 18411420609131212437
3886686 26 16893955758912801586
4214541 1 18410575063578944353
5104073 3 18410575084705277899
59755656 215 18264770960838280078
6138700 20 18338520734143689246
6443956 14 18410015407723008052
69090 78 18413105082441186630
7364860 26 18411700984633218563
77779 3 18410575089084640269
9709674 26 18410017654144092267
9981440 41 17329141889122941880

> <PUBCHEM_SHAPE_MULTIPOLES>
411.74
9.29
3.01
0.62
3.79
0
0
0
0
-1.19
0
-0.03
0
0

> <PUBCHEM_SHAPE_SELFOVERLAP>
909.635

> <PUBCHEM_SHAPE_VOLUME>
229.9

> <PUBCHEM_COORDINATE_TYPE>
2
5
10

$$$$
