12921515
  -OEChem-02172602533D

 54 55  0     1  0  0  0  0  0999 V2000
   -1.2673   -2.4163   -1.1994 Br  0  0  0  0  0  0  0  0  0  0  0  0
    3.6268    1.3350   -2.0925 Br  0  0  0  0  0  0  0  0  0  0  0  0
    0.0855    1.1746   -0.6010 P   0  0  0  0  0  0  0  0  0  0  0  0
   -1.0578    2.1649   -0.0213 O   0  0  0  0  0  0  0  0  0  0  0  0
   -0.0316    0.9361   -2.0818 O   0  0  0  0  0  0  0  0  0  0  0  0
   -0.0675    0.1265    1.7386 O   0  0  0  0  0  0  0  0  0  0  0  0
    1.4553    2.2991    1.2129 O   0  0  0  0  0  0  0  0  0  0  0  0
   -0.1133   -0.3028    0.3833 C   0  0  1  0  0  0  0  0  0  0  0  0
    1.6302    1.9730   -0.1634 C   0  0  1  0  0  0  0  0  0  0  0  0
   -2.5698    4.0466   -0.0682 C   0  0  0  0  0  0  0  0  0  0  0  0
   -1.4927    3.2548   -0.8149 C   0  0  0  0  0  0  0  0  0  0  0  0
   -1.3959   -1.0322    0.0703 C   0  0  0  0  0  0  0  0  0  0  0  0
    2.8434    1.1042   -0.3958 C   0  0  0  0  0  0  0  0  0  0  0  0
   -3.7834    3.1715    0.2520 C   0  0  0  0  0  0  0  0  0  0  0  0
   -1.9966    4.6484    1.2130 C   0  0  0  0  0  0  0  0  0  0  0  0
   -2.5885   -0.7806    0.6428 C   0  0  0  0  0  0  0  0  0  0  0  0
    3.3033    0.2155    0.5067 C   0  0  0  0  0  0  0  0  0  0  0  0
   -3.8320   -1.4926    0.3347 C   0  0  0  0  0  0  0  0  0  0  0  0
    4.4733   -0.6551    0.3468 C   0  0  0  0  0  0  0  0  0  0  0  0
   -4.6678   -1.0289   -0.6813 C   0  0  0  0  0  0  0  0  0  0  0  0
    4.3186   -1.9452   -0.1606 C   0  0  0  0  0  0  0  0  0  0  0  0
   -4.1799   -2.6338    1.0576 C   0  0  0  0  0  0  0  0  0  0  0  0
    5.7405   -0.1929    0.7022 C   0  0  0  0  0  0  0  0  0  0  0  0
   -5.8514   -1.7062   -0.9744 C   0  0  0  0  0  0  0  0  0  0  0  0
    5.4308   -2.7732   -0.3124 C   0  0  0  0  0  0  0  0  0  0  0  0
   -5.3636   -3.3111    0.7643 C   0  0  0  0  0  0  0  0  0  0  0  0
    6.8528   -1.0209    0.5504 C   0  0  0  0  0  0  0  0  0  0  0  0
   -6.1993   -2.8473   -0.2516 C   0  0  0  0  0  0  0  0  0  0  0  0
    6.6978   -2.3111    0.0431 C   0  0  0  0  0  0  0  0  0  0  0  0
    0.7398   -0.9706    0.2317 H   0  0  0  0  0  0  0  0  0  0  0  0
    1.7150    2.9243   -0.6993 H   0  0  0  0  0  0  0  0  0  0  0  0
   -2.8989    4.8675   -0.7172 H   0  0  0  0  0  0  0  0  0  0  0  0
   -1.8982    2.8701   -1.7569 H   0  0  0  0  0  0  0  0  0  0  0  0
   -0.6355    3.8955   -1.0474 H   0  0  0  0  0  0  0  0  0  0  0  0
   -4.5789    3.7706    0.7079 H   0  0  0  0  0  0  0  0  0  0  0  0
   -4.1870    2.7179   -0.6593 H   0  0  0  0  0  0  0  0  0  0  0  0
   -3.5309    2.3674    0.9503 H   0  0  0  0  0  0  0  0  0  0  0  0
   -1.1320    5.2833    0.9922 H   0  0  0  0  0  0  0  0  0  0  0  0
   -2.7459    5.2695    1.7154 H   0  0  0  0  0  0  0  0  0  0  0  0
   -1.6772    3.8742    1.9189 H   0  0  0  0  0  0  0  0  0  0  0  0
   -0.1244   -0.6652    2.3006 H   0  0  0  0  0  0  0  0  0  0  0  0
    2.2466    2.7853    1.5020 H   0  0  0  0  0  0  0  0  0  0  0  0
   -2.6848    0.0067    1.3854 H   0  0  0  0  0  0  0  0  0  0  0  0
    2.8039    0.1051    1.4661 H   0  0  0  0  0  0  0  0  0  0  0  0
   -4.4105   -0.1401   -1.2526 H   0  0  0  0  0  0  0  0  0  0  0  0
    3.3370   -2.3194   -0.4416 H   0  0  0  0  0  0  0  0  0  0  0  0
   -3.5394   -3.0071    1.8530 H   0  0  0  0  0  0  0  0  0  0  0  0
    5.8773    0.8099    1.0997 H   0  0  0  0  0  0  0  0  0  0  0  0
   -6.5022   -1.3450   -1.7653 H   0  0  0  0  0  0  0  0  0  0  0  0
    5.3102   -3.7777   -0.7074 H   0  0  0  0  0  0  0  0  0  0  0  0
   -5.6347   -4.1995    1.3271 H   0  0  0  0  0  0  0  0  0  0  0  0
    7.8395   -0.6612    0.8271 H   0  0  0  0  0  0  0  0  0  0  0  0
   -7.1208   -3.3746   -0.4798 H   0  0  0  0  0  0  0  0  0  0  0  0
    7.5639   -2.9557   -0.0752 H   0  0  0  0  0  0  0  0  0  0  0  0
  1 12  1  0  0  0  0
  2 13  1  0  0  0  0
  3  4  1  0  0  0  0
  3  5  2  0  0  0  0
  3  8  1  0  0  0  0
  3  9  1  0  0  0  0
  4 11  1  0  0  0  0
  6  8  1  0  0  0  0
  6 41  1  0  0  0  0
  7  9  1  0  0  0  0
  7 42  1  0  0  0  0
  8 12  1  0  0  0  0
  8 30  1  0  0  0  0
  9 13  1  0  0  0  0
  9 31  1  0  0  0  0
 10 11  1  0  0  0  0
 10 14  1  0  0  0  0
 10 15  1  0  0  0  0
 10 32  1  0  0  0  0
 11 33  1  0  0  0  0
 11 34  1  0  0  0  0
 12 16  2  0  0  0  0
 13 17  2  0  0  0  0
 14 35  1  0  0  0  0
 14 36  1  0  0  0  0
 14 37  1  0  0  0  0
 15 38  1  0  0  0  0
 15 39  1  0  0  0  0
 15 40  1  0  0  0  0
 16 18  1  0  0  0  0
 16 43  1  0  0  0  0
 17 19  1  0  0  0  0
 17 44  1  0  0  0  0
 18 20  2  0  0  0  0
 18 22  1  0  0  0  0
 19 21  2  0  0  0  0
 19 23  1  0  0  0  0
 20 24  1  0  0  0  0
 20 45  1  0  0  0  0
 21 25  1  0  0  0  0
 21 46  1  0  0  0  0
 22 26  2  0  0  0  0
 22 47  1  0  0  0  0
 23 27  2  0  0  0  0
 23 48  1  0  0  0  0
 24 28  2  0  0  0  0
 24 49  1  0  0  0  0
 25 29  2  0  0  0  0
 25 50  1  0  0  0  0
 26 28  1  0  0  0  0
 26 51  1  0  0  0  0
 27 29  1  0  0  0  0
 27 52  1  0  0  0  0
 28 53  1  0  0  0  0
 29 54  1  0  0  0  0
M  END
> <PUBCHEM_COMPOUND_CID>
12921515

> <PUBCHEM_CONFORMER_RMSD>
1

> <PUBCHEM_CONFORMER_DIVERSEORDER>
1
183
67
172
31
121
180
74
109
23
201
193
122
203
191
216
132
161
136
19
21
106
10
97
94
138
176
159
116
225
9
224
175
145
142
217
95
170
75
174
17
195
54
152
188
143
214
178
119
91
171
99
79
20
59
135
25
204
205
63
84
177
100
39
150
50
26
83
149
120
33
147
36
220
166
215
29
98
37
70
88
179
28
146
156
186
127
35
68
162
139
167
125
130
192
141
96
76
64
51
62
158
227
108
3
15
114
187
164
208
110
219
165
209
24
53
211
199
222
18
57
163
38
173
137
93
77
52
56
82
131
71
168
92
212
81
87
140
182
181
41
107
86
144
105
202
198
185
189
210
117
169
221
16
22
45
128
223
155
126
103
151
118
60
55
11
66
194
133
13
4
72
102
85
124
111
78
14
65
160
228
32
104
43
184
89
157
47
213
229
207
200
42
197
40
218
148
73
113
206
80
129
90
6
190
69
123
7
101
5
115
226
30
154
134
2
153
34
8
12
61
196
27
58
44
112
46
49
48

> <PUBCHEM_MMFF94_PARTIAL_CHARGES>
40
1 -0.11
11 0.28
12 -0.03
13 -0.03
16 -0.18
17 -0.18
18 0.03
19 0.03
2 -0.11
20 -0.15
21 -0.15
22 -0.15
23 -0.15
24 -0.15
25 -0.15
26 -0.15
27 -0.15
28 -0.15
29 -0.15
3 0.97
4 -0.55
41 0.4
42 0.4
43 0.15
44 0.15
45 0.15
46 0.15
47 0.15
48 0.15
49 0.15
5 -0.7
50 0.15
51 0.15
52 0.15
53 0.15
54 0.15
6 -0.68
7 -0.68
8 0.42
9 0.42

> <PUBCHEM_EFFECTIVE_ROTOR_COUNT>
9

> <PUBCHEM_PHARMACOPHORE_FEATURES>
9
1 1 hydrophobe
1 2 hydrophobe
1 6 acceptor
1 6 donor
1 7 acceptor
1 7 donor
3 10 14 15 hydrophobe
6 18 20 22 24 26 28 rings
6 19 21 23 25 27 29 rings

> <PUBCHEM_HEAVY_ATOM_COUNT>
29

> <PUBCHEM_ATOM_DEF_STEREO_COUNT>
0

> <PUBCHEM_ATOM_UDEF_STEREO_COUNT>
2

> <PUBCHEM_BOND_DEF_STEREO_COUNT>
2

> <PUBCHEM_BOND_UDEF_STEREO_COUNT>
0

> <PUBCHEM_ISOTOPIC_ATOM_COUNT>
0

> <PUBCHEM_COMPONENT_COUNT>
1

> <PUBCHEM_CACTVS_TAUTO_COUNT>
1

> <PUBCHEM_CONFORMER_ID>
00C52AAB00000001

> <PUBCHEM_MMFF94_ENERGY>
65.9498

> <PUBCHEM_FEATURE_SELFOVERLAP>
45.684

> <PUBCHEM_SHAPE_FINGERPRINT>
10050765 1 18409730651966659696
12422481 6 18056225538769452147
12645989 146 18269829982201784439
12760667 363 18409165519620836103
12788726 201 18337967782225026964
13004483 165 18340203115012630445
13540713 5 18187947061873904340
13692114 37 18054796087923133469
14347332 77 18409732863056457573
14713325 29 18340484448587638657
14866123 147 18265053531432506299
14955137 171 18265331901412040915
15021287 119 17386867023192032148
15042514 8 18410294692546115273
15131766 46 16053752252502732248
15183329 4 17458335355895270731
15927050 60 17977382733548024131
17909252 39 18337392767608367880
19301679 30 18410303527162123755
21236236 1 18339920407475316189
21478907 32 18410013260307892625
21639891 77 18130783425948259696
21682296 61 18410012173850530439
21703447 108 18338506547571175672
23536364 44 18188194456316016127
23559900 14 18120086450027569099
23622692 118 18334296466124695532
244849 19 17773287133372544400
24771750 20 16887524139391336781
25147074 1 18041011622272560348
255183 313 18124897672271385401
3004659 81 17822004363337710658
38695281 34 17615972105957197513
4073 2 18267302037554940506
437815 12 18261104223131271327
46194498 28 17676481809221424974
463206 1 18119246409515481298
5028188 123 18337965468651489766
513202 73 18411420596542145131
59755656 520 18121213178151157597
7164475 11 18335708251560100364
79837 15 18053671269752022001

> <PUBCHEM_SHAPE_MULTIPOLES>
589.06
15.54
5.34
1.38
10.54
4.9
-0.41
-17.23
0.98
-6.68
0.73
0.18
0.38
-0.65

> <PUBCHEM_SHAPE_SELFOVERLAP>
1176.391

> <PUBCHEM_SHAPE_VOLUME>
353.4

> <PUBCHEM_COORDINATE_TYPE>
2
5
10

$$$$
