11323257
  -OEChem-02172602573D

 52 53  0     1  0  0  0  0  0999 V2000
    0.8482    0.2773   -0.3496 C   0  0  1  0  0  0  0  0  0  0  0  0
    2.1054   -0.2547    0.4371 C   0  0  2  0  0  0  0  0  0  0  0  0
    3.4813    0.3972    0.0258 C   0  0  0  0  0  0  0  0  0  0  0  0
   -0.4563   -0.3779    0.2702 C   0  0  2  0  0  0  0  0  0  0  0  0
    0.7680    1.8279   -0.1872 C   0  0  0  0  0  0  0  0  0  0  0  0
    2.1542   -1.7986    0.4933 C   0  0  0  0  0  0  0  0  0  0  0  0
    3.2878    1.8389   -0.5093 C   0  0  0  0  0  0  0  0  0  0  0  0
    2.0912    2.5323    0.1180 C   0  0  0  0  0  0  0  0  0  0  0  0
    0.9226   -0.0644   -1.8598 C   0  0  0  0  0  0  0  0  0  0  0  0
    0.8713   -2.3919    1.0697 C   0  0  0  0  0  0  0  0  0  0  0  0
   -0.3337   -1.8987    0.3118 C   0  0  0  0  0  0  0  0  0  0  0  0
   -1.7684    0.1289   -0.3582 C   0  0  0  0  0  0  0  0  0  0  0  0
    4.2703   -0.4106   -1.0266 C   0  0  0  0  0  0  0  0  0  0  0  0
    4.3812    0.4676    1.2881 C   0  0  0  0  0  0  0  0  0  0  0  0
   -2.9756   -0.4086    0.4047 C   0  0  0  0  0  0  0  0  0  0  0  0
   -1.1820   -2.7722   -0.2546 C   0  0  0  0  0  0  0  0  0  0  0  0
   -4.2807    0.0761   -0.1900 C   0  0  0  0  0  0  0  0  0  0  0  0
   -4.8843    1.3222    0.2644 C   0  0  0  0  0  0  0  0  0  0  0  0
   -4.8764   -0.6328   -1.1650 C   0  0  0  0  0  0  0  0  0  0  0  0
   -4.4242    2.1421    1.2174 C   0  0  0  0  0  0  0  0  0  0  0  0
    1.9276    0.0601    1.4789 H   0  0  0  0  0  0  0  0  0  0  0  0
   -0.4905   -0.0601    1.3247 H   0  0  0  0  0  0  0  0  0  0  0  0
    0.0826    2.0936    0.6279 H   0  0  0  0  0  0  0  0  0  0  0  0
    0.3329    2.2728   -1.0918 H   0  0  0  0  0  0  0  0  0  0  0  0
    2.9922   -2.1267    1.1187 H   0  0  0  0  0  0  0  0  0  0  0  0
    2.3240   -2.2175   -0.5053 H   0  0  0  0  0  0  0  0  0  0  0  0
    3.1637    1.8405   -1.5983 H   0  0  0  0  0  0  0  0  0  0  0  0
    4.1886    2.4379   -0.3237 H   0  0  0  0  0  0  0  0  0  0  0  0
    2.0354    3.5697   -0.2329 H   0  0  0  0  0  0  0  0  0  0  0  0
    2.2290    2.5880    1.2048 H   0  0  0  0  0  0  0  0  0  0  0  0
    0.0416    0.2995   -2.3984 H   0  0  0  0  0  0  0  0  0  0  0  0
    1.7758    0.4026   -2.3532 H   0  0  0  0  0  0  0  0  0  0  0  0
    0.9900   -1.1413   -2.0392 H   0  0  0  0  0  0  0  0  0  0  0  0
    0.7710   -2.1073    2.1246 H   0  0  0  0  0  0  0  0  0  0  0  0
    0.9434   -3.4859    1.0482 H   0  0  0  0  0  0  0  0  0  0  0  0
   -1.7997    1.2238   -0.3480 H   0  0  0  0  0  0  0  0  0  0  0  0
   -1.8398   -0.1723   -1.4099 H   0  0  0  0  0  0  0  0  0  0  0  0
    3.6864   -0.5935   -1.9318 H   0  0  0  0  0  0  0  0  0  0  0  0
    5.1778    0.1262   -1.3285 H   0  0  0  0  0  0  0  0  0  0  0  0
    4.5925   -1.3822   -0.6367 H   0  0  0  0  0  0  0  0  0  0  0  0
    5.3566    0.9109    1.0556 H   0  0  0  0  0  0  0  0  0  0  0  0
    3.9235    1.0776    2.0744 H   0  0  0  0  0  0  0  0  0  0  0  0
    4.5675   -0.5275    1.7056 H   0  0  0  0  0  0  0  0  0  0  0  0
   -2.9045   -0.1040    1.4566 H   0  0  0  0  0  0  0  0  0  0  0  0
   -3.0481   -1.4925    0.4788 H   0  0  0  0  0  0  0  0  0  0  0  0
   -2.0006   -2.4940   -0.9044 H   0  0  0  0  0  0  0  0  0  0  0  0
   -1.0126   -3.8411   -0.1593 H   0  0  0  0  0  0  0  0  0  0  0  0
   -5.8154    1.6104   -0.2216 H   0  0  0  0  0  0  0  0  0  0  0  0
   -4.4422   -1.5576   -1.5317 H   0  0  0  0  0  0  0  0  0  0  0  0
   -5.8069   -0.3136   -1.6242 H   0  0  0  0  0  0  0  0  0  0  0  0
   -4.9768    3.0433    1.4645 H   0  0  0  0  0  0  0  0  0  0  0  0
   -3.5078    1.9650    1.7667 H   0  0  0  0  0  0  0  0  0  0  0  0
  1  2  1  0  0  0  0
  1  4  1  0  0  0  0
  1  5  1  0  0  0  0
  1  9  1  0  0  0  0
  2  3  1  0  0  0  0
  2  6  1  0  0  0  0
  2 21  1  0  0  0  0
  3  7  1  0  0  0  0
  3 13  1  0  0  0  0
  3 14  1  0  0  0  0
  4 11  1  0  0  0  0
  4 12  1  0  0  0  0
  4 22  1  0  0  0  0
  5  8  1  0  0  0  0
  5 23  1  0  0  0  0
  5 24  1  0  0  0  0
  6 10  1  0  0  0  0
  6 25  1  0  0  0  0
  6 26  1  0  0  0  0
  7  8  1  0  0  0  0
  7 27  1  0  0  0  0
  7 28  1  0  0  0  0
  8 29  1  0  0  0  0
  8 30  1  0  0  0  0
  9 31  1  0  0  0  0
  9 32  1  0  0  0  0
  9 33  1  0  0  0  0
 10 11  1  0  0  0  0
 10 34  1  0  0  0  0
 10 35  1  0  0  0  0
 11 16  2  0  0  0  0
 12 15  1  0  0  0  0
 12 36  1  0  0  0  0
 12 37  1  0  0  0  0
 13 38  1  0  0  0  0
 13 39  1  0  0  0  0
 13 40  1  0  0  0  0
 14 41  1  0  0  0  0
 14 42  1  0  0  0  0
 14 43  1  0  0  0  0
 15 17  1  0  0  0  0
 15 44  1  0  0  0  0
 15 45  1  0  0  0  0
 16 46  1  0  0  0  0
 16 47  1  0  0  0  0
 17 18  1  0  0  0  0
 17 19  2  0  0  0  0
 18 20  2  0  0  0  0
 18 48  1  0  0  0  0
 19 49  1  0  0  0  0
 19 50  1  0  0  0  0
 20 51  1  0  0  0  0
 20 52  1  0  0  0  0
M  END
> <PUBCHEM_COMPOUND_CID>
11323257

> <PUBCHEM_CONFORMER_RMSD>
0.8

> <PUBCHEM_CONFORMER_DIVERSEORDER>
1
9
4
10
11
3
6
5
8
7
2

> <PUBCHEM_MMFF94_PARTIAL_CHARGES>
16
10 0.14
11 -0.28
15 0.14
16 -0.3
17 -0.14
18 -0.15
19 -0.3
20 -0.3
4 0.14
46 0.15
47 0.15
48 0.15
49 0.15
50 0.15
51 0.15
52 0.15

> <PUBCHEM_EFFECTIVE_ROTOR_COUNT>
5.4

> <PUBCHEM_PHARMACOPHORE_FEATURES>
6
1 19 hydrophobe
1 20 hydrophobe
3 3 13 14 hydrophobe
4 12 15 17 18 hydrophobe
6 1 2 3 5 7 8 rings
6 1 2 4 6 10 11 rings

> <PUBCHEM_HEAVY_ATOM_COUNT>
20

> <PUBCHEM_ATOM_DEF_STEREO_COUNT>
3

> <PUBCHEM_ATOM_UDEF_STEREO_COUNT>
0

> <PUBCHEM_BOND_DEF_STEREO_COUNT>
0

> <PUBCHEM_BOND_UDEF_STEREO_COUNT>
0

> <PUBCHEM_ISOTOPIC_ATOM_COUNT>
0

> <PUBCHEM_COMPONENT_COUNT>
1

> <PUBCHEM_CACTVS_TAUTO_COUNT>
1

> <PUBCHEM_CONFORMER_ID>
00ACC77900000001

> <PUBCHEM_MMFF94_ENERGY>
71.7219

> <PUBCHEM_FEATURE_SELFOVERLAP>
30.644

> <PUBCHEM_SHAPE_FINGERPRINT>
10366900 7 18040155123777629273
10411042 1 17688024211032436531
10906281 52 18337400439316678996
10967382 1 18335698338848953394
10980938 120 18261105236310815483
11471102 20 18335135405959324284
11578080 2 16341158012297797802
11961588 58 12966546734676223706
12011746 2 18335140882311684718
12236239 1 18131910451753029325
12403260 363 18339635758828854285
12633257 1 18261097617524012072
12644460 14 17967811596254648130
13140716 1 18189891097009694856
13464514 151 18412554214230574151
13583140 156 17313381283697203817
14251751 93 18059570321849911647
14466204 15 18337664235369587032
14790565 3 18334587857917700780
15099037 51 18408889538070639110
15475509 8 18198081200469749300
1601671 61 18260551086977375284
16945 1 18335131008287437486
18186145 218 18411699872484784365
19784866 9 18333733485673837161
20739085 24 18117848698101758249
21421861 104 17752483157498266313
21501502 16 18046341113813545286
21524375 3 18335982051577692695
22182313 1 17605537856789556918
23184049 59 18259701207211774606
2334 1 17902511824472725082
23402539 116 18202842145319904693
23419403 2 14014166172060208534
23557571 272 16773799182514042193
23558518 356 17828481710648267714
23559900 14 18341337768906763302
25 1 18334012813198619378
2748010 2 17902212435293034894
335352 9 18408322186002657830
474 4 18408324372040648233
4990 188 18060143128210081478
5104073 3 18187926247886946472
543358 83 18338520720678025545
6328613 192 18262807388529242852
633830 44 18411420630643102589
69090 78 18410569634476486319
7164475 11 17910952770533361583
7832392 63 18410572928943275026
8272917 22 18338801104865009103
9981440 41 16977562038235124120
9999458 23 18186802508548853372

> <PUBCHEM_SHAPE_MULTIPOLES>
411.59
9.41
2.67
1.2
8.02
0.36
-0.19
-3.98
0.28
0.01
0.55
-0.17
0.03
-0.97

> <PUBCHEM_SHAPE_SELFOVERLAP>
832.341

> <PUBCHEM_SHAPE_VOLUME>
241

> <PUBCHEM_COORDINATE_TYPE>
2
5
10

$$$$
