13786700
  -OEChem-02172602233D

 39 42  0     1  0  0  0  0  0999 V2000
    2.1991    1.7541   -0.2089 O   0  0  0  0  0  0  0  0  0  0  0  0
    1.2569   -2.8744    0.0073 O   0  0  0  0  0  0  0  0  0  0  0  0
   -1.7570   -3.3868    0.1271 O   0  0  0  0  0  0  0  0  0  0  0  0
   -4.3653    1.4402    0.0523 O   0  0  0  0  0  0  0  0  0  0  0  0
   -4.0687   -1.6220    0.1555 O   0  0  0  0  0  0  0  0  0  0  0  0
    3.1716   -0.4822   -0.2344 C   0  0  0  0  0  0  0  0  0  0  0  0
    3.4128    1.0170    0.1123 C   0  0  2  0  0  0  0  0  0  0  0  0
    1.6784   -0.5063   -0.1114 C   0  0  0  0  0  0  0  0  0  0  0  0
    1.1984    0.8151   -0.1336 C   0  0  0  0  0  0  0  0  0  0  0  0
   -0.1686    1.1209   -0.0965 C   0  0  0  0  0  0  0  0  0  0  0  0
    3.8862   -1.4769    0.6819 C   0  0  0  0  0  0  0  0  0  0  0  0
    3.5610   -0.7593   -1.6977 C   0  0  0  0  0  0  0  0  0  0  0  0
    0.8144   -1.5974   -0.0394 C   0  0  0  0  0  0  0  0  0  0  0  0
   -1.0033    0.0074   -0.0208 C   0  0  0  0  0  0  0  0  0  0  0  0
   -0.5337   -1.2990    0.0094 C   0  0  0  0  0  0  0  0  0  0  0  0
    3.7610    1.3286    1.5697 C   0  0  0  0  0  0  0  0  0  0  0  0
   -2.3793    0.1093    0.0282 C   0  0  0  0  0  0  0  0  0  0  0  0
   -0.8010    2.3848   -0.1201 C   0  0  0  0  0  0  0  0  0  0  0  0
   -1.7049   -2.1827    0.0847 C   0  0  0  0  0  0  0  0  0  0  0  0
   -2.9218   -1.2537    0.0986 C   0  0  0  0  0  0  0  0  0  0  0  0
   -3.0151    1.3332    0.0059 C   0  0  0  0  0  0  0  0  0  0  0  0
   -2.2089    2.4788   -0.0692 C   0  0  0  0  0  0  0  0  0  0  0  0
   -0.0122    3.6512   -0.2011 C   0  0  0  0  0  0  0  0  0  0  0  0
    4.2139    1.4287   -0.5145 H   0  0  0  0  0  0  0  0  0  0  0  0
    4.9652   -1.2858    0.6941 H   0  0  0  0  0  0  0  0  0  0  0  0
    3.5194   -1.4243    1.7130 H   0  0  0  0  0  0  0  0  0  0  0  0
    3.7512   -2.5107    0.3457 H   0  0  0  0  0  0  0  0  0  0  0  0
    3.0766   -0.0610   -2.3909 H   0  0  0  0  0  0  0  0  0  0  0  0
    4.6440   -0.6648   -1.8358 H   0  0  0  0  0  0  0  0  0  0  0  0
    3.2722   -1.7718   -2.0033 H   0  0  0  0  0  0  0  0  0  0  0  0
    2.9879    0.9653    2.2552 H   0  0  0  0  0  0  0  0  0  0  0  0
    4.7221    0.8919    1.8556 H   0  0  0  0  0  0  0  0  0  0  0  0
    3.8212    2.4127    1.7178 H   0  0  0  0  0  0  0  0  0  0  0  0
   -2.6829    3.4586   -0.0890 H   0  0  0  0  0  0  0  0  0  0  0  0
   -0.6599    4.5349   -0.2095 H   0  0  0  0  0  0  0  0  0  0  0  0
    0.6497    3.7479    0.6655 H   0  0  0  0  0  0  0  0  0  0  0  0
    0.5780    3.6781   -1.1226 H   0  0  0  0  0  0  0  0  0  0  0  0
    0.4961   -3.4769    0.0623 H   0  0  0  0  0  0  0  0  0  0  0  0
   -4.6080    2.3817    0.0254 H   0  0  0  0  0  0  0  0  0  0  0  0
  1  7  1  0  0  0  0
  1  9  1  0  0  0  0
  2 13  1  0  0  0  0
  2 38  1  0  0  0  0
  3 19  2  0  0  0  0
  4 21  1  0  0  0  0
  4 39  1  0  0  0  0
  5 20  2  0  0  0  0
  6  7  1  0  0  0  0
  6  8  1  0  0  0  0
  6 11  1  0  0  0  0
  6 12  1  0  0  0  0
  7 16  1  0  0  0  0
  7 24  1  0  0  0  0
  8  9  2  0  0  0  0
  8 13  1  0  0  0  0
  9 10  1  0  0  0  0
 10 14  2  0  0  0  0
 10 18  1  0  0  0  0
 11 25  1  0  0  0  0
 11 26  1  0  0  0  0
 11 27  1  0  0  0  0
 12 28  1  0  0  0  0
 12 29  1  0  0  0  0
 12 30  1  0  0  0  0
 13 15  2  0  0  0  0
 14 15  1  0  0  0  0
 14 17  1  0  0  0  0
 15 19  1  0  0  0  0
 16 31  1  0  0  0  0
 16 32  1  0  0  0  0
 16 33  1  0  0  0  0
 17 20  1  0  0  0  0
 17 21  2  0  0  0  0
 18 22  2  0  0  0  0
 18 23  1  0  0  0  0
 19 20  1  0  0  0  0
 21 22  1  0  0  0  0
 22 34  1  0  0  0  0
 23 35  1  0  0  0  0
 23 36  1  0  0  0  0
 23 37  1  0  0  0  0
M  END
> <PUBCHEM_COMPOUND_CID>
13786700

> <PUBCHEM_CONFORMER_RMSD>
0.6

> <PUBCHEM_CONFORMER_DIVERSEORDER>
1

> <PUBCHEM_MMFF94_PARTIAL_CHARGES>
21
1 -0.36
13 0.08
15 0.09
17 0.09
18 -0.14
19 0.48
2 -0.53
20 0.48
21 0.08
22 -0.15
23 0.14
3 -0.57
34 0.15
38 0.45
39 0.45
4 -0.53
5 -0.57
6 0.14
7 0.28
8 -0.14
9 0.08

> <PUBCHEM_EFFECTIVE_ROTOR_COUNT>
0.6

> <PUBCHEM_PHARMACOPHORE_FEATURES>
10
1 1 acceptor
1 2 donor
1 3 acceptor
1 4 donor
1 5 acceptor
3 6 11 12 hydrophobe
5 1 6 7 8 9 rings
5 14 15 17 19 20 rings
6 10 14 17 18 21 22 rings
6 8 9 10 13 14 15 rings

> <PUBCHEM_HEAVY_ATOM_COUNT>
23

> <PUBCHEM_ATOM_DEF_STEREO_COUNT>
1

> <PUBCHEM_ATOM_UDEF_STEREO_COUNT>
0

> <PUBCHEM_BOND_DEF_STEREO_COUNT>
0

> <PUBCHEM_BOND_UDEF_STEREO_COUNT>
0

> <PUBCHEM_ISOTOPIC_ATOM_COUNT>
0

> <PUBCHEM_COMPONENT_COUNT>
1

> <PUBCHEM_CACTVS_TAUTO_COUNT>
72

> <PUBCHEM_CONFORMER_ID>
00D25E4C00000001

> <PUBCHEM_MMFF94_ENERGY>
85.0159

> <PUBCHEM_FEATURE_SELFOVERLAP>
51.069

> <PUBCHEM_SHAPE_FINGERPRINT>
10319926 262 18268688586279336810
10411042 1 17761776569126734610
10498660 4 18408890628813205244
10608611 8 18341892995865362464
10616163 171 18410015476421307630
10967382 1 18338237038051240309
1100329 8 18410860958261800969
11132069 177 18410008840612562777
11578080 2 17201905132461810555
12173636 292 18338231562115715789
12403259 226 18341609274837001408
12553582 1 18050012382664182567
12633257 1 18198627640041390056
13140716 1 18411134732003018696
13224815 77 18411982472663720656
13583140 156 14476691779649682967
138480 1 16104448041052259869
14081887 123 18342163497132411344
14178342 30 18335973212519024120
14223421 5 18339923697504557038
14790565 3 18122925143678655469
15042514 8 18336266751842916075
15196674 1 18410573989446424936
15536298 74 18343584044675061356
16752209 62 18335137574860007311
16945 1 18338519612523683060
17804303 29 18340208492870828110
19591789 44 17833556695486637567
20028762 73 18201722873502856399
20510252 161 18343022207033904009
20905425 154 18196657289513999174
21267235 1 18337401520741219187
22182313 1 18341613741144072957
23184049 29 18265615574799765726
2334 1 18267025131642671924
23402539 116 18341884182603163783
23557571 272 18270969041497518132
23559900 14 18341897381607402500
238 59 15876425877797369613
2748010 2 18340490066246534900
335352 9 18266177236257632862
34934 24 18410003364418139681
350125 39 17976825285389595596
352729 6 18266178318673780621
5104073 3 18411418405813010026
7097593 13 17681537144231540010
7364860 26 18053381003050914326
81228 2 18410020952293483752
9709674 26 18342740749426933966

> <PUBCHEM_SHAPE_MULTIPOLES>
443.98
6.79
3.61
0.88
0.79
0.33
-0.05
-0.35
0.56
-1.6
0.07
0.99
0.05
0.54

> <PUBCHEM_SHAPE_SELFOVERLAP>
1015.816

> <PUBCHEM_SHAPE_VOLUME>
235

> <PUBCHEM_COORDINATE_TYPE>
2
5
10

$$$$
