44258427
  -OEChem-02172602313D

 72 76  0     1  0  0  0  0  0999 V2000
    2.9769    0.3023   -0.5327 O   0  0  0  0  0  0  0  0  0  0  0  0
    1.3598   -1.8555    0.0016 O   0  0  0  0  0  0  0  0  0  0  0  0
    0.6426   -4.0651    0.2305 O   0  0  0  0  0  0  0  0  0  0  0  0
    5.2010   -2.3612   -1.7397 O   0  0  0  0  0  0  0  0  0  0  0  0
    6.8732   -0.0103   -1.8970 O   0  0  0  0  0  0  0  0  0  0  0  0
    2.9613    2.6200   -0.9033 O   0  0  0  0  0  0  0  0  0  0  0  0
    5.4447    1.6263   -0.1475 O   0  0  0  0  0  0  0  0  0  0  0  0
   -0.4222   -1.0860    2.0755 O   0  0  0  0  0  0  0  0  0  0  0  0
   -2.7084   -2.8400    2.3275 O   0  0  0  0  0  0  0  0  0  0  0  0
   -2.1685   -4.5711    0.2201 O   0  0  0  0  0  0  0  0  0  0  0  0
   -1.6983    1.7237   -0.7617 O   0  0  0  0  0  0  0  0  0  0  0  0
    2.9053    3.5018    1.7199 O   0  0  0  0  0  0  0  0  0  0  0  0
    0.5676    3.5072    3.1279 O   0  0  0  0  0  0  0  0  0  0  0  0
   -1.9897    2.9841    3.1016 O   0  0  0  0  0  0  0  0  0  0  0  0
   -7.2348   -0.1914   -3.1331 O   0  0  0  0  0  0  0  0  0  0  0  0
    3.3498   -0.9911   -1.0197 C   0  0  1  0  0  0  0  0  0  0  0  0
    4.8760   -1.1169   -1.1254 C   0  0  2  0  0  0  0  0  0  0  0  0
    5.4504    0.0284   -1.9634 C   0  0  1  0  0  0  0  0  0  0  0  0
    4.9382    1.3787   -1.4628 C   0  0  1  0  0  0  0  0  0  0  0  0
   -0.6116   -2.2645    1.2924 C   0  0  1  0  0  0  0  0  0  0  0  0
    0.7620   -2.8032    0.8858 C   0  0  2  0  0  0  0  0  0  0  0  0
   -1.3759   -3.2993    2.1176 C   0  0  2  0  0  0  0  0  0  0  0  0
   -1.3917   -4.6580    1.4164 C   0  0  2  0  0  0  0  0  0  0  0  0
    3.4116    1.3597   -1.3909 C   0  0  1  0  0  0  0  0  0  0  0  0
    2.7669   -2.0269   -0.0636 C   0  0  0  0  0  0  0  0  0  0  0  0
    0.0390   -5.0709    1.0538 C   0  0  1  0  0  0  0  0  0  0  0  0
    0.0854   -6.3822    0.2781 C   0  0  0  0  0  0  0  0  0  0  0  0
    1.7880    2.6225   -0.1974 C   0  0  0  0  0  0  0  0  0  0  0  0
    1.7572    3.0665    1.1255 C   0  0  0  0  0  0  0  0  0  0  0  0
    0.6186    2.1758   -0.8134 C   0  0  0  0  0  0  0  0  0  0  0  0
   -0.5822    2.1739   -0.1032 C   0  0  0  0  0  0  0  0  0  0  0  0
    0.5575    3.0661    1.8380 C   0  0  0  0  0  0  0  0  0  0  0  0
   -0.6110    2.6178    1.2177 C   0  0  0  0  0  0  0  0  0  0  0  0
   -1.8908    2.6062    1.9425 C   0  0  0  0  0  0  0  0  0  0  0  0
   -2.9047    1.7030   -0.0785 C   0  0  0  0  0  0  0  0  0  0  0  0
   -3.0616    2.1102    1.1911 C   0  0  0  0  0  0  0  0  0  0  0  0
   -4.0403    1.2062   -0.8813 C   0  0  0  0  0  0  0  0  0  0  0  0
   -5.1356    2.0342   -1.1273 C   0  0  0  0  0  0  0  0  0  0  0  0
   -4.0183   -0.0914   -1.3926 C   0  0  0  0  0  0  0  0  0  0  0  0
   -6.2090    1.5647   -1.8842 C   0  0  0  0  0  0  0  0  0  0  0  0
   -5.0916   -0.5611   -2.1495 C   0  0  0  0  0  0  0  0  0  0  0  0
   -6.1869    0.2668   -2.3953 C   0  0  0  0  0  0  0  0  0  0  0  0
    2.8772   -1.1350   -2.0009 H   0  0  0  0  0  0  0  0  0  0  0  0
    5.3391   -1.1194   -0.1318 H   0  0  0  0  0  0  0  0  0  0  0  0
    5.1756   -0.1106   -3.0163 H   0  0  0  0  0  0  0  0  0  0  0  0
    5.3004    2.1980   -2.0923 H   0  0  0  0  0  0  0  0  0  0  0  0
   -1.1919   -1.9669    0.4113 H   0  0  0  0  0  0  0  0  0  0  0  0
    1.3933   -2.9121    1.7788 H   0  0  0  0  0  0  0  0  0  0  0  0
   -0.9126   -3.3957    3.1075 H   0  0  0  0  0  0  0  0  0  0  0  0
   -1.8716   -5.4029    2.0617 H   0  0  0  0  0  0  0  0  0  0  0  0
    2.9876    1.2142   -2.3930 H   0  0  0  0  0  0  0  0  0  0  0  0
    3.1871   -1.8768    0.9385 H   0  0  0  0  0  0  0  0  0  0  0  0
    3.0036   -3.0412   -0.4039 H   0  0  0  0  0  0  0  0  0  0  0  0
    0.6389   -5.1852    1.9657 H   0  0  0  0  0  0  0  0  0  0  0  0
   -0.3671   -6.2839   -0.7143 H   0  0  0  0  0  0  0  0  0  0  0  0
   -0.4174   -7.1863    0.8236 H   0  0  0  0  0  0  0  0  0  0  0  0
    1.1266   -6.6787    0.1086 H   0  0  0  0  0  0  0  0  0  0  0  0
    4.7920   -2.3772   -2.6218 H   0  0  0  0  0  0  0  0  0  0  0  0
    7.2107    0.7320   -2.4268 H   0  0  0  0  0  0  0  0  0  0  0  0
    4.9832    1.0385    0.4741 H   0  0  0  0  0  0  0  0  0  0  0  0
    0.0942   -1.3262    2.8636 H   0  0  0  0  0  0  0  0  0  0  0  0
   -3.1738   -3.5193    2.8445 H   0  0  0  0  0  0  0  0  0  0  0  0
   -2.3619   -5.4772   -0.0738 H   0  0  0  0  0  0  0  0  0  0  0  0
    0.6339    1.8364   -1.8460 H   0  0  0  0  0  0  0  0  0  0  0  0
    3.6323    3.4244    1.0778 H   0  0  0  0  0  0  0  0  0  0  0  0
   -4.0169    2.0877    1.7035 H   0  0  0  0  0  0  0  0  0  0  0  0
   -0.3188    3.4548    3.5161 H   0  0  0  0  0  0  0  0  0  0  0  0
   -5.1692    3.0503   -0.7414 H   0  0  0  0  0  0  0  0  0  0  0  0
   -3.1732   -0.7503   -1.2076 H   0  0  0  0  0  0  0  0  0  0  0  0
   -7.0591    2.2145   -2.0731 H   0  0  0  0  0  0  0  0  0  0  0  0
   -5.0627   -1.5743   -2.5413 H   0  0  0  0  0  0  0  0  0  0  0  0
   -7.0519   -1.1072   -3.4052 H   0  0  0  0  0  0  0  0  0  0  0  0
  1 16  1  0  0  0  0
  1 24  1  0  0  0  0
  2 21  1  0  0  0  0
  2 25  1  0  0  0  0
  3 21  1  0  0  0  0
  3 26  1  0  0  0  0
  4 17  1  0  0  0  0
  4 58  1  0  0  0  0
  5 18  1  0  0  0  0
  5 59  1  0  0  0  0
  6 24  1  0  0  0  0
  6 28  1  0  0  0  0
  7 19  1  0  0  0  0
  7 60  1  0  0  0  0
  8 20  1  0  0  0  0
  8 61  1  0  0  0  0
  9 22  1  0  0  0  0
  9 62  1  0  0  0  0
 10 23  1  0  0  0  0
 10 63  1  0  0  0  0
 11 31  1  0  0  0  0
 11 35  1  0  0  0  0
 12 29  1  0  0  0  0
 12 65  1  0  0  0  0
 13 32  1  0  0  0  0
 13 67  1  0  0  0  0
 14 34  2  0  0  0  0
 15 42  1  0  0  0  0
 15 72  1  0  0  0  0
 16 17  1  0  0  0  0
 16 25  1  0  0  0  0
 16 43  1  0  0  0  0
 17 18  1  0  0  0  0
 17 44  1  0  0  0  0
 18 19  1  0  0  0  0
 18 45  1  0  0  0  0
 19 24  1  0  0  0  0
 19 46  1  0  0  0  0
 20 21  1  0  0  0  0
 20 22  1  0  0  0  0
 20 47  1  0  0  0  0
 21 48  1  0  0  0  0
 22 23  1  0  0  0  0
 22 49  1  0  0  0  0
 23 26  1  0  0  0  0
 23 50  1  0  0  0  0
 24 51  1  0  0  0  0
 25 52  1  0  0  0  0
 25 53  1  0  0  0  0
 26 27  1  0  0  0  0
 26 54  1  0  0  0  0
 27 55  1  0  0  0  0
 27 56  1  0  0  0  0
 27 57  1  0  0  0  0
 28 29  2  0  0  0  0
 28 30  1  0  0  0  0
 29 32  1  0  0  0  0
 30 31  2  0  0  0  0
 30 64  1  0  0  0  0
 31 33  1  0  0  0  0
 32 33  2  0  0  0  0
 33 34  1  0  0  0  0
 34 36  1  0  0  0  0
 35 36  2  0  0  0  0
 35 37  1  0  0  0  0
 36 66  1  0  0  0  0
 37 38  2  0  0  0  0
 37 39  1  0  0  0  0
 38 40  1  0  0  0  0
 38 68  1  0  0  0  0
 39 41  2  0  0  0  0
 39 69  1  0  0  0  0
 40 42  2  0  0  0  0
 40 70  1  0  0  0  0
 41 42  1  0  0  0  0
 41 71  1  0  0  0  0
M  END
> <PUBCHEM_COMPOUND_CID>
44258427

> <PUBCHEM_CONFORMER_RMSD>
1.6

> <PUBCHEM_CONFORMER_DIVERSEORDER>
1
75
62
82
51
33
39
83
91
26
3
84
22
59
11
29
48
40
86
21
73
67
47
79
57
24
27
31
93
14
20
10
38
90
42
30
8
70
69
49
18
61
53
54
68
41
72
43
4
12
7
2
63
66
17
5
44
28
58
15
60
85
6
16
56
65
76
77
55
9
87
50
13
52
35
37
46
74
34
19
89
45
23
36
32
92
25
71
64
78
80
88
81

> <PUBCHEM_MMFF94_PARTIAL_CHARGES>
56
1 -0.56
10 -0.68
11 -0.16
12 -0.53
13 -0.53
14 -0.57
15 -0.53
16 0.28
17 0.28
18 0.28
19 0.28
2 -0.56
20 0.28
21 0.56
22 0.28
23 0.28
24 0.56
25 0.28
26 0.28
28 0.08
29 0.08
3 -0.56
30 -0.15
31 0.08
32 0.08
33 0.09
34 0.47
35 0.05
36 -0.14
37 0.03
38 -0.15
39 -0.15
4 -0.68
40 -0.15
41 -0.15
42 0.08
5 -0.68
58 0.4
59 0.4
6 -0.36
60 0.4
61 0.4
62 0.4
63 0.4
64 0.15
65 0.45
66 0.15
67 0.45
68 0.15
69 0.15
7 -0.68
70 0.15
71 0.15
72 0.45
8 -0.68
9 -0.68

> <PUBCHEM_EFFECTIVE_ROTOR_COUNT>
8.4

> <PUBCHEM_PHARMACOPHORE_FEATURES>
26
1 1 acceptor
1 10 acceptor
1 10 donor
1 11 acceptor
1 12 donor
1 13 donor
1 14 acceptor
1 15 donor
1 2 acceptor
1 3 acceptor
1 4 acceptor
1 4 donor
1 5 acceptor
1 5 donor
1 6 acceptor
1 7 acceptor
1 7 donor
1 8 acceptor
1 8 donor
1 9 acceptor
1 9 donor
6 1 16 17 18 19 24 rings
6 11 31 33 34 35 36 rings
6 28 29 30 31 32 33 rings
6 3 20 21 22 23 26 rings
6 37 38 39 40 41 42 rings

> <PUBCHEM_HEAVY_ATOM_COUNT>
42

> <PUBCHEM_ATOM_DEF_STEREO_COUNT>
6

> <PUBCHEM_ATOM_UDEF_STEREO_COUNT>
4

> <PUBCHEM_BOND_DEF_STEREO_COUNT>
0

> <PUBCHEM_BOND_UDEF_STEREO_COUNT>
0

> <PUBCHEM_ISOTOPIC_ATOM_COUNT>
0

> <PUBCHEM_COMPONENT_COUNT>
1

> <PUBCHEM_CACTVS_TAUTO_COUNT>
48

> <PUBCHEM_CONFORMER_ID>
02A3547B00000001

> <PUBCHEM_MMFF94_ENERGY>
137.1087

> <PUBCHEM_FEATURE_SELFOVERLAP>
132.139

> <PUBCHEM_SHAPE_FINGERPRINT>
10032420 55 18338505340332041405
10462674 296 17042034668995480391
11285246 1 18342183258350448671
11445158 3 17247009221226971709
12156800 1 18191008201045101080
12293681 25 17984139533006253768
12355185 1 18202002144601544435
12977781 61 17910949467961921960
14856354 85 15596141616640633091
14931854 50 18411136900750624173
15001296 14 17843090823363206709
150020 26 16678692830517287682
15351339 4 18340197501490257483
15721738 202 15482665801741071752
15968369 26 17910089628188715237
16993438 75 18115597095936352563
17138139 8 18272082777672110181
17909252 39 17703784842653401221
19319366 153 17908728153514860969
20028762 73 18196367010334756726
20764821 26 18265914487644495986
20775438 99 18055893610268771950
21133410 62 18260556580841901267
21344244 181 18338513179285334703
25223398 141 17822864211326337919
437795 51 18334861619818098663
45266715 3 18270386295929371576
50080093 196 17545612153577588562
50150288 127 17342680872070112097
50677037 204 17401202275164165322
508706 21 17829886886572193583
6376802 137 17845934023009479696
66674814 147 18335424530415506324
86090 222 18266720537374036529

> <PUBCHEM_SHAPE_MULTIPOLES>
776.3
12.5
7.46
2.86
3.54
12.54
0.68
-4.75
-15.6
-0.6
5.32
2.29
-1.24
0.83

> <PUBCHEM_SHAPE_SELFOVERLAP>
1690.142

> <PUBCHEM_SHAPE_VOLUME>
416

> <PUBCHEM_COORDINATE_TYPE>
2
5
10

$$$$
