59728532
  -OEChem-02172602273D

 78 80  0     1  0  0  0  0  0999 V2000
    1.9224   -1.8939    0.8358 O   0  0  0  0  0  0  0  0  0  0  0  0
    1.9804    1.0510   -2.5882 O   0  0  0  0  0  0  0  0  0  0  0  0
   -4.9123    1.5709    0.8574 O   0  0  0  0  0  0  0  0  0  0  0  0
   -3.6135    2.4024   -1.4550 O   0  0  0  0  0  0  0  0  0  0  0  0
    7.7854   -1.7949    0.9541 O   0  0  0  0  0  0  0  0  0  0  0  0
   -6.6944   -1.4873   -0.0202 O   0  0  0  0  0  0  0  0  0  0  0  0
    9.2769    0.0742   -0.4627 O   0  0  0  0  0  0  0  0  0  0  0  0
   -6.4986    1.1961    3.1145 O   0  0  0  0  0  0  0  0  0  0  0  0
   -1.8317   -3.4035    0.0848 O   0  0  0  0  0  0  0  0  0  0  0  0
   -1.0390   -2.6755   -2.4777 O   0  0  0  0  0  0  0  0  0  0  0  0
    1.3921    0.3771    0.1720 C   0  0  2  0  0  0  0  0  0  0  0  0
    2.8444    0.5775   -0.3726 C   0  0  2  0  0  0  0  0  0  0  0  0
    0.7455    1.7008    0.6654 C   0  0  0  0  0  0  0  0  0  0  0  0
    3.8310    1.0853    0.7148 C   0  0  0  0  0  0  0  0  0  0  0  0
    1.3214   -0.6838    1.2852 C   0  0  0  0  0  0  0  0  0  0  0  0
    2.8916    1.5115   -1.5957 C   0  0  0  0  0  0  0  0  0  0  0  0
   -0.7640    1.6682    0.7137 C   0  0  0  0  0  0  0  0  0  0  0  0
    5.2840    0.8131    0.4030 C   0  0  0  0  0  0  0  0  0  0  0  0
   -1.5061    2.0554   -0.4020 C   0  0  0  0  0  0  0  0  0  0  0  0
   -1.4157    1.2500    1.8740 C   0  0  0  0  0  0  0  0  0  0  0  0
    5.8771   -0.3764    0.8262 C   0  0  0  0  0  0  0  0  0  0  0  0
    6.0321    1.7507   -0.3090 C   0  0  0  0  0  0  0  0  0  0  0  0
   -2.8999    2.0241   -0.3578 C   0  0  0  0  0  0  0  0  0  0  0  0
   -3.5517    1.6060    0.8025 C   0  0  0  0  0  0  0  0  0  0  0  0
   -2.8095    1.2190    1.9183 C   0  0  0  0  0  0  0  0  0  0  0  0
   -5.5180    0.3052    1.1143 C   0  0  2  0  0  0  0  0  0  0  0  0
    7.2184   -0.6283    0.5374 C   0  0  0  0  0  0  0  0  0  0  0  0
    7.3734    1.4989   -0.5975 C   0  0  0  0  0  0  0  0  0  0  0  0
   -5.7304   -0.4489   -0.2117 C   0  0  1  0  0  0  0  0  0  0  0  0
    7.9665    0.3093   -0.1744 C   0  0  0  0  0  0  0  0  0  0  0  0
   -6.8089    0.5196    1.9001 C   0  0  0  0  0  0  0  0  0  0  0  0
   -4.4759   -1.0449   -0.8141 C   0  0  0  0  0  0  0  0  0  0  0  0
   -3.7177   -1.9594   -0.0830 C   0  0  0  0  0  0  0  0  0  0  0  0
   -4.0786   -0.6803   -2.1005 C   0  0  0  0  0  0  0  0  0  0  0  0
   -2.8703    2.8163   -2.5998 C   0  0  0  0  0  0  0  0  0  0  0  0
   -2.5623   -2.5095   -0.6384 C   0  0  0  0  0  0  0  0  0  0  0  0
   -2.9232   -1.2301   -2.6557 C   0  0  0  0  0  0  0  0  0  0  0  0
    6.9512   -2.6990    1.6759 C   0  0  0  0  0  0  0  0  0  0  0  0
   -2.1651   -2.1448   -1.9248 C   0  0  0  0  0  0  0  0  0  0  0  0
   -2.3070   -3.7221    1.3914 C   0  0  0  0  0  0  0  0  0  0  0  0
    0.7974   -0.0145   -0.6654 H   0  0  0  0  0  0  0  0  0  0  0  0
    3.1831   -0.4075   -0.7231 H   0  0  0  0  0  0  0  0  0  0  0  0
    1.1356    1.9634    1.6579 H   0  0  0  0  0  0  0  0  0  0  0  0
    1.0288    2.5411    0.0235 H   0  0  0  0  0  0  0  0  0  0  0  0
    3.6185    0.6258    1.6854 H   0  0  0  0  0  0  0  0  0  0  0  0
    3.6898    2.1620    0.8784 H   0  0  0  0  0  0  0  0  0  0  0  0
    1.8148   -0.3634    2.2067 H   0  0  0  0  0  0  0  0  0  0  0  0
    0.2813   -0.9215    1.5258 H   0  0  0  0  0  0  0  0  0  0  0  0
    2.6494    2.5478   -1.3453 H   0  0  0  0  0  0  0  0  0  0  0  0
    3.8851    1.4996   -2.0525 H   0  0  0  0  0  0  0  0  0  0  0  0
   -0.9444    2.3665   -1.2764 H   0  0  0  0  0  0  0  0  0  0  0  0
   -0.8508    0.9563    2.7546 H   0  0  0  0  0  0  0  0  0  0  0  0
    5.2446   -1.0687    1.3717 H   0  0  0  0  0  0  0  0  0  0  0  0
    5.5854    2.6849   -0.6386 H   0  0  0  0  0  0  0  0  0  0  0  0
    1.8474   -2.5362    1.5620 H   0  0  0  0  0  0  0  0  0  0  0  0
    2.0442    1.6640   -3.3403 H   0  0  0  0  0  0  0  0  0  0  0  0
   -3.2981    0.9119    2.8389 H   0  0  0  0  0  0  0  0  0  0  0  0
   -4.8850   -0.2926    1.7817 H   0  0  0  0  0  0  0  0  0  0  0  0
    7.9450    2.2386   -1.1515 H   0  0  0  0  0  0  0  0  0  0  0  0
   -6.1633    0.2494   -0.9406 H   0  0  0  0  0  0  0  0  0  0  0  0
   -7.2950   -0.4251    2.1602 H   0  0  0  0  0  0  0  0  0  0  0  0
   -7.5060    1.1492    1.3378 H   0  0  0  0  0  0  0  0  0  0  0  0
   -4.0787   -2.2212    0.9051 H   0  0  0  0  0  0  0  0  0  0  0  0
   -4.6620    0.0250   -2.6861 H   0  0  0  0  0  0  0  0  0  0  0  0
   -7.5750   -1.0751   -0.0074 H   0  0  0  0  0  0  0  0  0  0  0  0
   -3.5962    3.0761   -3.3775 H   0  0  0  0  0  0  0  0  0  0  0  0
   -2.2546    2.0039   -3.0003 H   0  0  0  0  0  0  0  0  0  0  0  0
   -2.2861    3.7201   -2.3958 H   0  0  0  0  0  0  0  0  0  0  0  0
    9.6324    0.8307   -0.9601 H   0  0  0  0  0  0  0  0  0  0  0  0
   -2.6255   -0.9372   -3.6590 H   0  0  0  0  0  0  0  0  0  0  0  0
   -7.3369    1.3279    3.5893 H   0  0  0  0  0  0  0  0  0  0  0  0
    6.6093   -2.2658    2.6220 H   0  0  0  0  0  0  0  0  0  0  0  0
    6.1224   -3.0636    1.0594 H   0  0  0  0  0  0  0  0  0  0  0  0
    7.5645   -3.5701    1.9295 H   0  0  0  0  0  0  0  0  0  0  0  0
   -0.9195   -2.3056   -3.3693 H   0  0  0  0  0  0  0  0  0  0  0  0
   -1.6031   -4.4413    1.8230 H   0  0  0  0  0  0  0  0  0  0  0  0
   -3.2840   -4.2161    1.3567 H   0  0  0  0  0  0  0  0  0  0  0  0
   -2.3045   -2.8443    2.0470 H   0  0  0  0  0  0  0  0  0  0  0  0
  1 15  1  0  0  0  0
  1 55  1  0  0  0  0
  2 16  1  0  0  0  0
  2 56  1  0  0  0  0
  3 24  1  0  0  0  0
  3 26  1  0  0  0  0
  4 23  1  0  0  0  0
  4 35  1  0  0  0  0
  5 27  1  0  0  0  0
  5 38  1  0  0  0  0
  6 29  1  0  0  0  0
  6 65  1  0  0  0  0
  7 30  1  0  0  0  0
  7 69  1  0  0  0  0
  8 31  1  0  0  0  0
  8 71  1  0  0  0  0
  9 36  1  0  0  0  0
  9 40  1  0  0  0  0
 10 39  1  0  0  0  0
 10 75  1  0  0  0  0
 11 12  1  0  0  0  0
 11 13  1  0  0  0  0
 11 15  1  0  0  0  0
 11 41  1  0  0  0  0
 12 14  1  0  0  0  0
 12 16  1  0  0  0  0
 12 42  1  0  0  0  0
 13 17  1  0  0  0  0
 13 43  1  0  0  0  0
 13 44  1  0  0  0  0
 14 18  1  0  0  0  0
 14 45  1  0  0  0  0
 14 46  1  0  0  0  0
 15 47  1  0  0  0  0
 15 48  1  0  0  0  0
 16 49  1  0  0  0  0
 16 50  1  0  0  0  0
 17 19  2  0  0  0  0
 17 20  1  0  0  0  0
 18 21  2  0  0  0  0
 18 22  1  0  0  0  0
 19 23  1  0  0  0  0
 19 51  1  0  0  0  0
 20 25  2  0  0  0  0
 20 52  1  0  0  0  0
 21 27  1  0  0  0  0
 21 53  1  0  0  0  0
 22 28  2  0  0  0  0
 22 54  1  0  0  0  0
 23 24  2  0  0  0  0
 24 25  1  0  0  0  0
 25 57  1  0  0  0  0
 26 29  1  0  0  0  0
 26 31  1  0  0  0  0
 26 58  1  0  0  0  0
 27 30  2  0  0  0  0
 28 30  1  0  0  0  0
 28 59  1  0  0  0  0
 29 32  1  0  0  0  0
 29 60  1  0  0  0  0
 31 61  1  0  0  0  0
 31 62  1  0  0  0  0
 32 33  2  0  0  0  0
 32 34  1  0  0  0  0
 33 36  1  0  0  0  0
 33 63  1  0  0  0  0
 34 37  2  0  0  0  0
 34 64  1  0  0  0  0
 35 66  1  0  0  0  0
 35 67  1  0  0  0  0
 35 68  1  0  0  0  0
 36 39  2  0  0  0  0
 37 39  1  0  0  0  0
 37 70  1  0  0  0  0
 38 72  1  0  0  0  0
 38 73  1  0  0  0  0
 38 74  1  0  0  0  0
 40 76  1  0  0  0  0
 40 77  1  0  0  0  0
 40 78  1  0  0  0  0
M  END
> <PUBCHEM_COMPOUND_CID>
59728532

> <PUBCHEM_CONFORMER_RMSD>
2

> <PUBCHEM_CONFORMER_DIVERSEORDER>
11
114
36
60
23
102
166
107
130
9
82
133
101
52
165
145
91
49
2
26
71
34
30
164
137
57
150
8
152
149
156
13
163
98
167
95
43
146
136
29
100
64
120
20
94
143
77
76
7
75
79
132
67
16
140
161
115
21
38
59
154
12
69
135
15
25
85
3
32
169
148
31
61
142
157
131
108
134
109
93
113
112
86
96
158
19
141
162
87
144
124
6
39
78
63
90
1
105
27
159
74
62
65
116
97
110
119
50
5
81
66
47
37
73
111
123
18
153
46
10
117
42
129
14
83
92
89
103
155
48
54
22
41
56
58
127
168
104
70
99
44
28
121
138
33
88
51
160
40
80
24
17
122
126
4
45
35
151
147
72
139
53
68
55
84
106
118
125
128

> <PUBCHEM_MMFF94_PARTIAL_CHARGES>
53
1 -0.68
10 -0.53
13 0.14
14 0.14
15 0.28
16 0.28
17 -0.14
18 -0.14
19 -0.15
2 -0.68
20 -0.15
21 -0.15
22 -0.15
23 0.08
24 0.08
25 -0.15
26 0.28
27 0.08
28 -0.15
29 0.42
3 -0.36
30 0.08
31 0.28
32 -0.14
33 -0.15
34 -0.15
35 0.28
36 0.08
37 -0.15
38 0.28
39 0.08
4 -0.36
40 0.28
5 -0.36
51 0.15
52 0.15
53 0.15
54 0.15
55 0.4
56 0.4
57 0.15
59 0.15
6 -0.68
63 0.15
64 0.15
65 0.4
69 0.45
7 -0.53
70 0.15
71 0.4
75 0.45
8 -0.68
9 -0.36

> <PUBCHEM_EFFECTIVE_ROTOR_COUNT>
15

> <PUBCHEM_PHARMACOPHORE_FEATURES>
18
1 1 acceptor
1 1 donor
1 10 donor
1 2 acceptor
1 2 donor
1 3 acceptor
1 4 acceptor
1 5 acceptor
1 6 acceptor
1 6 donor
1 7 donor
1 8 acceptor
1 8 donor
1 9 acceptor
4 11 12 13 14 hydrophobe
6 17 19 20 23 24 25 rings
6 18 21 22 27 28 30 rings
6 32 33 34 36 37 39 rings

> <PUBCHEM_HEAVY_ATOM_COUNT>
40

> <PUBCHEM_ATOM_DEF_STEREO_COUNT>
0

> <PUBCHEM_ATOM_UDEF_STEREO_COUNT>
4

> <PUBCHEM_BOND_DEF_STEREO_COUNT>
0

> <PUBCHEM_BOND_UDEF_STEREO_COUNT>
0

> <PUBCHEM_ISOTOPIC_ATOM_COUNT>
0

> <PUBCHEM_COMPONENT_COUNT>
1

> <PUBCHEM_CACTVS_TAUTO_COUNT>
8

> <PUBCHEM_CONFORMER_ID>
038F62940000000B

> <PUBCHEM_MMFF94_ENERGY>
147.2372

> <PUBCHEM_FEATURE_SELFOVERLAP>
91.366

> <PUBCHEM_SHAPE_FINGERPRINT>
11135926 11 18131065996367860004
11524674 6 17060338534945370853
12082328 90 17385723556815934824
12156800 1 13072577812215734323
13782708 43 18042115489134174848
14394314 77 18342182137686394313
14856354 85 17846217773928921181
15183329 4 18261103089723953210
15274700 242 18339640032284468883
15351334 14 17023733508261530126
15439362 3 17468462726040357261
15799311 1 18333736810743519038
335507 130 17967818258877980740
3383291 50 17703232931494321007
484985 159 17632001049097393949
504579 68 18334866056677701564
5080951 261 18059560395658497572
77296 10 18335416924519178556
9896288 288 17559968631952624545

> <PUBCHEM_SHAPE_MULTIPOLES>
764.49
21.64
3.43
2.41
41.82
2.26
0.68
1.89
-5.6
-1.98
0.38
-3.54
-0.14
-2.81

> <PUBCHEM_SHAPE_SELFOVERLAP>
1608.981

> <PUBCHEM_SHAPE_VOLUME>
430

> <PUBCHEM_COORDINATE_TYPE>
2
5
10

$$$$
