10168657
  -OEChem-02172602533D

 94 98  0     1  0  0  0  0  0999 V2000
   -3.2597   -4.2032   -4.3722 O   0  0  0  0  0  0  0  0  0  0  0  0
   -1.8561   -2.4182   -4.3158 O   0  0  0  0  0  0  0  0  0  0  0  0
   -4.7126   -2.3459    1.8713 O   0  0  0  0  0  0  0  0  0  0  0  0
   -3.8194   -1.7465   -0.1686 O   0  0  0  0  0  0  0  0  0  0  0  0
   -3.6693    1.7092    2.7569 O   0  0  0  0  0  0  0  0  0  0  0  0
   -7.0443    4.6559   -0.4706 O   0  0  0  0  0  0  0  0  0  0  0  0
    0.8183   -1.8239    0.7758 N   0  0  0  0  0  0  0  0  0  0  0  0
    3.6413   -1.0874   -0.1686 N   0  0  0  0  0  0  0  0  0  0  0  0
   -0.1826    0.8835    0.0270 N   0  0  0  0  0  0  0  0  0  0  0  0
    2.6306    1.7443   -0.3479 N   0  0  0  0  0  0  0  0  0  0  0  0
   -4.4708    1.3873    0.5917 N   0  0  0  0  0  0  0  0  0  0  0  0
   -0.9418   -3.1142   -0.1678 C   0  0  1  0  0  0  0  0  0  0  0  0
    0.2837   -4.0174   -0.0154 C   0  0  1  0  0  0  0  0  0  0  0  0
   -0.4643   -1.8899    0.5910 C   0  0  0  0  0  0  0  0  0  0  0  0
   -1.2229   -2.7422   -1.6208 C   0  0  0  0  0  0  0  0  0  0  0  0
    1.3571   -3.0024    0.3041 C   0  0  0  0  0  0  0  0  0  0  0  0
    0.1073   -5.0198    1.1256 C   0  0  0  0  0  0  0  0  0  0  0  0
   -1.4652   -0.8788    1.0505 C   0  0  0  0  0  0  0  0  0  0  0  0
   -2.1276   -3.7479   -2.3187 C   0  0  0  0  0  0  0  0  0  0  0  0
    2.6645   -3.2677    0.1427 C   0  0  0  0  0  0  0  0  0  0  0  0
   -1.2897    0.4125    0.7065 C   0  0  0  0  0  0  0  0  0  0  0  0
   -2.5610   -1.4502    1.8996 C   0  0  0  0  0  0  0  0  0  0  0  0
    3.6976   -2.3378    0.3989 C   0  0  0  0  0  0  0  0  0  0  0  0
   -2.1340    1.5627    0.9848 C   0  0  0  0  0  0  0  0  0  0  0  0
    4.8996   -2.4264    1.0703 C   0  0  0  0  0  0  0  0  0  0  0  0
   -2.3893   -3.3671   -3.7547 C   0  0  0  0  0  0  0  0  0  0  0  0
   -1.5608    2.7003    0.5728 C   0  0  0  0  0  0  0  0  0  0  0  0
   -0.3124    2.1780   -0.0170 C   0  0  0  0  0  0  0  0  0  0  0  0
    4.7649   -0.3614    0.1537 C   0  0  0  0  0  0  0  0  0  0  0  0
    5.5673   -1.1852    0.9202 C   0  0  0  0  0  0  0  0  0  0  0  0
   -3.7391   -1.8531    1.0475 C   0  0  0  0  0  0  0  0  0  0  0  0
    1.9446    2.8691   -0.7291 C   0  0  0  0  0  0  0  0  0  0  0  0
    3.9790    1.8320   -0.5948 C   0  0  0  0  0  0  0  0  0  0  0  0
    0.6363    3.1416   -0.6239 C   0  0  0  0  0  0  0  0  0  0  0  0
    2.9637    3.7764   -1.2755 C   0  0  0  0  0  0  0  0  0  0  0  0
    4.9613    0.9435   -0.3670 C   0  0  0  0  0  0  0  0  0  0  0  0
    4.1702    3.1677   -1.1874 C   0  0  0  0  0  0  0  0  0  0  0  0
   -3.4807    1.5640    1.5461 C   0  0  0  0  0  0  0  0  0  0  0  0
    5.3994   -3.6102    1.8039 C   0  0  0  0  0  0  0  0  0  0  0  0
   -1.9859    4.1196    0.5972 C   0  0  0  0  0  0  0  0  0  0  0  0
    2.6365    5.1289   -1.8097 C   0  0  0  0  0  0  0  0  0  0  0  0
    6.8352   -0.8351    1.4413 C   0  0  0  0  0  0  0  0  0  0  0  0
    5.5050    3.6844   -1.6044 C   0  0  0  0  0  0  0  0  0  0  0  0
   -5.8809    1.3507    0.9066 C   0  0  0  0  0  0  0  0  0  0  0  0
    2.6960    6.1969   -0.7303 C   0  0  0  0  0  0  0  0  0  0  0  0
    7.2884    0.3851    1.8215 C   0  0  0  0  0  0  0  0  0  0  0  0
   -6.5263    2.7293    0.8547 C   0  0  0  0  0  0  0  0  0  0  0  0
   -5.9173   -2.7643    1.2212 C   0  0  0  0  0  0  0  0  0  0  0  0
   -6.4340    3.3732   -0.5234 C   0  0  0  0  0  0  0  0  0  0  0  0
   -1.8231   -3.5572    0.3033 H   0  0  0  0  0  0  0  0  0  0  0  0
    0.5037   -4.5632   -0.9404 H   0  0  0  0  0  0  0  0  0  0  0  0
   -1.6940   -1.7529   -1.6796 H   0  0  0  0  0  0  0  0  0  0  0  0
   -0.2823   -2.6384   -2.1789 H   0  0  0  0  0  0  0  0  0  0  0  0
    1.0106   -5.6252    1.2577 H   0  0  0  0  0  0  0  0  0  0  0  0
   -0.7226   -5.7014    0.9103 H   0  0  0  0  0  0  0  0  0  0  0  0
   -0.1046   -4.5228    2.0792 H   0  0  0  0  0  0  0  0  0  0  0  0
   -1.6617   -4.7392   -2.3134 H   0  0  0  0  0  0  0  0  0  0  0  0
   -3.0918   -3.8083   -1.8029 H   0  0  0  0  0  0  0  0  0  0  0  0
    2.9634   -4.2617   -0.1809 H   0  0  0  0  0  0  0  0  0  0  0  0
   -2.1990   -2.3379    2.4329 H   0  0  0  0  0  0  0  0  0  0  0  0
   -2.8866   -0.7407    2.6635 H   0  0  0  0  0  0  0  0  0  0  0  0
    2.8954   -0.7644   -0.7701 H   0  0  0  0  0  0  0  0  0  0  0  0
    0.2310    4.0935   -0.9461 H   0  0  0  0  0  0  0  0  0  0  0  0
    5.9850    1.2162   -0.6096 H   0  0  0  0  0  0  0  0  0  0  0  0
    5.7832   -3.3250    2.7891 H   0  0  0  0  0  0  0  0  0  0  0  0
    4.6139   -4.3554    1.9651 H   0  0  0  0  0  0  0  0  0  0  0  0
    6.2092   -4.0905    1.2449 H   0  0  0  0  0  0  0  0  0  0  0  0
    2.1867    0.9651    0.1123 H   0  0  0  0  0  0  0  0  0  0  0  0
   -1.2464    4.7349    1.1191 H   0  0  0  0  0  0  0  0  0  0  0  0
   -2.9420    4.2463    1.1147 H   0  0  0  0  0  0  0  0  0  0  0  0
   -2.1088    4.5045   -0.4199 H   0  0  0  0  0  0  0  0  0  0  0  0
    1.6586    5.1408   -2.3031 H   0  0  0  0  0  0  0  0  0  0  0  0
    3.3499    5.3954   -2.5990 H   0  0  0  0  0  0  0  0  0  0  0  0
    7.5352   -1.6562    1.5913 H   0  0  0  0  0  0  0  0  0  0  0  0
   -3.4101   -3.9496   -5.3077 H   0  0  0  0  0  0  0  0  0  0  0  0
   -4.2057    1.2766   -0.3831 H   0  0  0  0  0  0  0  0  0  0  0  0
    6.1931    3.7075   -0.7528 H   0  0  0  0  0  0  0  0  0  0  0  0
    5.4474    4.7028   -1.9995 H   0  0  0  0  0  0  0  0  0  0  0  0
    5.9371    3.0521   -2.3868 H   0  0  0  0  0  0  0  0  0  0  0  0
   -6.0095    0.9198    1.9055 H   0  0  0  0  0  0  0  0  0  0  0  0
   -6.3567    0.6782    0.1853 H   0  0  0  0  0  0  0  0  0  0  0  0
    1.9648    6.0057    0.0622 H   0  0  0  0  0  0  0  0  0  0  0  0
    2.4753    7.1794   -1.1602 H   0  0  0  0  0  0  0  0  0  0  0  0
    3.6898    6.2465   -0.2724 H   0  0  0  0  0  0  0  0  0  0  0  0
   -7.5803    2.6527    1.1486 H   0  0  0  0  0  0  0  0  0  0  0  0
   -6.0575    3.3932    1.5922 H   0  0  0  0  0  0  0  0  0  0  0  0
    6.6800    1.2801    1.7714 H   0  0  0  0  0  0  0  0  0  0  0  0
    8.2927    0.4864    2.2205 H   0  0  0  0  0  0  0  0  0  0  0  0
   -6.6084   -3.1269    1.9867 H   0  0  0  0  0  0  0  0  0  0  0  0
   -5.7058   -3.5800    0.5233 H   0  0  0  0  0  0  0  0  0  0  0  0
   -6.3805   -1.9208    0.7010 H   0  0  0  0  0  0  0  0  0  0  0  0
   -6.9557    2.7682   -1.2717 H   0  0  0  0  0  0  0  0  0  0  0  0
   -5.3931    3.5058   -0.8340 H   0  0  0  0  0  0  0  0  0  0  0  0
   -6.9748    5.0416   -1.3605 H   0  0  0  0  0  0  0  0  0  0  0  0
  1 26  1  0  0  0  0
  1 75  1  0  0  0  0
  2 26  2  0  0  0  0
  3 31  1  0  0  0  0
  3 48  1  0  0  0  0
  4 31  2  0  0  0  0
  5 38  2  0  0  0  0
  6 49  1  0  0  0  0
  6 94  1  0  0  0  0
  7 14  2  0  0  0  0
  7 16  1  0  0  0  0
  8 23  1  0  0  0  0
  8 29  1  0  0  0  0
  8 62  1  0  0  0  0
  9 21  1  0  0  0  0
  9 28  2  0  0  0  0
 10 32  1  0  0  0  0
 10 33  1  0  0  0  0
 10 68  1  0  0  0  0
 11 38  1  0  0  0  0
 11 44  1  0  0  0  0
 11 76  1  0  0  0  0
 12 13  1  0  0  0  0
 12 14  1  0  0  0  0
 12 15  1  0  0  0  0
 12 50  1  0  0  0  0
 13 16  1  0  0  0  0
 13 17  1  0  0  0  0
 13 51  1  0  0  0  0
 14 18  1  0  0  0  0
 15 19  1  0  0  0  0
 15 52  1  0  0  0  0
 15 53  1  0  0  0  0
 16 20  2  0  0  0  0
 17 54  1  0  0  0  0
 17 55  1  0  0  0  0
 17 56  1  0  0  0  0
 18 21  2  0  0  0  0
 18 22  1  0  0  0  0
 19 26  1  0  0  0  0
 19 57  1  0  0  0  0
 19 58  1  0  0  0  0
 20 23  1  0  0  0  0
 20 59  1  0  0  0  0
 21 24  1  0  0  0  0
 22 31  1  0  0  0  0
 22 60  1  0  0  0  0
 22 61  1  0  0  0  0
 23 25  2  0  0  0  0
 24 27  2  0  0  0  0
 24 38  1  0  0  0  0
 25 30  1  0  0  0  0
 25 39  1  0  0  0  0
 27 28  1  0  0  0  0
 27 40  1  0  0  0  0
 28 34  1  0  0  0  0
 29 30  2  0  0  0  0
 29 36  1  0  0  0  0
 30 42  1  0  0  0  0
 32 34  2  0  0  0  0
 32 35  1  0  0  0  0
 33 36  2  0  0  0  0
 33 37  1  0  0  0  0
 34 63  1  0  0  0  0
 35 37  2  0  0  0  0
 35 41  1  0  0  0  0
 36 64  1  0  0  0  0
 37 43  1  0  0  0  0
 39 65  1  0  0  0  0
 39 66  1  0  0  0  0
 39 67  1  0  0  0  0
 40 69  1  0  0  0  0
 40 70  1  0  0  0  0
 40 71  1  0  0  0  0
 41 45  1  0  0  0  0
 41 72  1  0  0  0  0
 41 73  1  0  0  0  0
 42 46  2  0  0  0  0
 42 74  1  0  0  0  0
 43 77  1  0  0  0  0
 43 78  1  0  0  0  0
 43 79  1  0  0  0  0
 44 47  1  0  0  0  0
 44 80  1  0  0  0  0
 44 81  1  0  0  0  0
 45 82  1  0  0  0  0
 45 83  1  0  0  0  0
 45 84  1  0  0  0  0
 46 87  1  0  0  0  0
 46 88  1  0  0  0  0
 47 49  1  0  0  0  0
 47 85  1  0  0  0  0
 47 86  1  0  0  0  0
 48 89  1  0  0  0  0
 48 90  1  0  0  0  0
 48 91  1  0  0  0  0
 49 92  1  0  0  0  0
 49 93  1  0  0  0  0
M  END
> <PUBCHEM_COMPOUND_CID>
10168657

> <PUBCHEM_CONFORMER_RMSD>
1.4

> <PUBCHEM_CONFORMER_DIVERSEORDER>
2
1
9
10
5
6
3
8
7
4

> <PUBCHEM_MMFF94_PARTIAL_CHARGES>
56
1 -0.65
10 -0.6
11 -0.73
12 0.06
13 0.14
14 0.37
16 0.03
18 -0.12
19 0.06
2 -0.57
20 -0.11
21 0.17
22 0.2
23 -0.2
24 0.01
25 -0.18
26 0.66
27 -0.12
28 0.42
29 -0.2
3 -0.43
30 -0.05
31 0.66
32 0.1
33 0.1
34 -0.14
35 -0.14
36 -0.11
37 -0.14
38 0.62
39 0.18
4 -0.57
40 0.14
41 0.14
42 -0.1
43 0.14
44 0.3
46 -0.3
48 0.28
49 0.28
5 -0.57
59 0.15
6 -0.68
62 0.27
63 0.15
64 0.15
68 0.4
7 -0.62
74 0.15
75 0.5
76 0.37
8 0.03
87 0.15
88 0.15
9 -0.62
94 0.4

> <PUBCHEM_EFFECTIVE_ROTOR_COUNT>
13.4

> <PUBCHEM_PHARMACOPHORE_FEATURES>
20
1 1 acceptor
1 10 cation
1 10 donor
1 11 donor
1 2 acceptor
1 4 acceptor
1 45 hydrophobe
1 46 hydrophobe
1 5 acceptor
1 6 acceptor
1 6 donor
1 7 acceptor
1 8 cation
1 8 donor
1 9 acceptor
3 1 2 26 anion
5 10 32 33 35 37 rings
5 7 12 13 14 16 rings
5 8 23 25 29 30 rings
5 9 21 24 27 28 rings

> <PUBCHEM_HEAVY_ATOM_COUNT>
49

> <PUBCHEM_ATOM_DEF_STEREO_COUNT>
0

> <PUBCHEM_ATOM_UDEF_STEREO_COUNT>
2

> <PUBCHEM_BOND_DEF_STEREO_COUNT>
0

> <PUBCHEM_BOND_UDEF_STEREO_COUNT>
0

> <PUBCHEM_ISOTOPIC_ATOM_COUNT>
0

> <PUBCHEM_COMPONENT_COUNT>
1

> <PUBCHEM_CACTVS_TAUTO_COUNT>
16

> <PUBCHEM_CONFORMER_ID>
009B295100000002

> <PUBCHEM_MMFF94_ENERGY>
120.1522

> <PUBCHEM_FEATURE_SELFOVERLAP>
101.561

> <PUBCHEM_SHAPE_FINGERPRINT>
10439779 11 18265614471958996400
14040222 75 18122644776755223277
14117953 113 18264775359565214516
14790565 3 18264500640266235321
14940108 7 18272639160562903169
15001296 14 18334583429600183568
15320467 1 17976272544747666328
15324884 4 16254446754303474370
15351339 4 17184750737166777026
15439362 3 18190465965967757161
15444296 7 18272366490817385927
15968369 153 18199474449047876850
16628084 112 18122347037138613227
18365409 1 17702926086140115655
20764821 26 18335133241855009076
22311459 1 18118973494544910633
25019877 29 17486760892558570303
3388396 114 17478041026515587836
45266715 3 16760266693387560326
50150288 127 17771369717831201036
563151 97 17830745613775641860
6036956 94 17685512235016282676

> <PUBCHEM_SHAPE_MULTIPOLES>
948.28
15.14
8.76
2.66
0.01
4.83
-3.56
6.9
5.69
-0.16
-3.86
-2.56
-3.23
-5.88

> <PUBCHEM_SHAPE_SELFOVERLAP>
2044.448

> <PUBCHEM_SHAPE_VOLUME>
525.1

> <PUBCHEM_COORDINATE_TYPE>
2
5
10

$$$$
