131752312
  -OEChem-02172602533D

 62 68  0     1  0  0  0  0  0999 V2000
    1.8054   -1.8812    1.7183 O   0  0  0  0  0  0  0  0  0  0  0  0
   -4.6767    0.6605    0.2671 O   0  0  0  0  0  0  0  0  0  0  0  0
    3.9739   -1.1342   -0.0837 O   0  0  0  0  0  0  0  0  0  0  0  0
   -3.2041    2.2830    1.2280 O   0  0  0  0  0  0  0  0  0  0  0  0
   -0.1676   -2.6582   -1.6193 O   0  0  0  0  0  0  0  0  0  0  0  0
    4.1845   -3.3881   -0.2122 O   0  0  0  0  0  0  0  0  0  0  0  0
    5.2477    2.6575   -1.2703 O   0  0  0  0  0  0  0  0  0  0  0  0
   -2.7655    4.2868    0.2689 O   0  0  0  0  0  0  0  0  0  0  0  0
    1.1425   -1.3913    0.5297 C   0  0  1  0  0  0  0  0  0  0  0  0
   -0.4006   -1.6197    0.5676 C   0  0  1  0  0  0  0  0  0  0  0  0
   -1.1379   -0.3353    1.1250 C   0  0  2  0  0  0  0  0  0  0  0  0
    1.7105   -0.0588    0.0053 C   0  0  1  0  0  0  0  0  0  0  0  0
   -2.3371    0.1569    0.2487 C   0  0  1  0  0  0  0  0  0  0  0  0
    2.1053   -2.5628    0.4974 C   0  0  1  0  0  0  0  0  0  0  0  0
   -3.1355   -1.0799   -0.1765 C   0  0  2  0  0  0  0  0  0  0  0  0
   -0.1644    0.7561    1.5985 C   0  0  0  0  0  0  0  0  0  0  0  0
    0.9306    1.1360    0.6092 C   0  0  0  0  0  0  0  0  0  0  0  0
   -0.9153   -2.0880   -0.8182 C   0  0  0  0  0  0  0  0  0  0  0  0
    3.2347    0.0169    0.4122 C   0  0  2  0  0  0  0  0  0  0  0  0
   -2.3920   -1.9498   -1.1708 C   0  0  0  0  0  0  0  0  0  0  0  0
   -3.4540    0.8846    1.0112 C   0  0  2  0  0  0  0  0  0  0  0  0
   -0.7539   -2.8135    1.5129 C   0  0  0  0  0  0  0  0  0  0  0  0
   -4.5408   -0.5532   -0.5133 C   0  0  0  0  0  0  0  0  0  0  0  0
    1.5882   -0.0275   -1.5362 C   0  0  0  0  0  0  0  0  0  0  0  0
    3.5031   -2.4052    0.0514 C   0  0  0  0  0  0  0  0  0  0  0  0
   -1.9359    1.0457   -0.9031 C   0  0  0  0  0  0  0  0  0  0  0  0
    4.0152    1.2490   -0.0257 C   0  0  0  0  0  0  0  0  0  0  0  0
   -4.8006   -0.2128   -1.9819 C   0  0  0  0  0  0  0  0  0  0  0  0
   -5.6248   -1.5279   -0.0377 C   0  0  0  0  0  0  0  0  0  0  0  0
   -2.1571    2.3640   -0.9321 C   0  0  0  0  0  0  0  0  0  0  0  0
   -2.7407    3.0622    0.2206 C   0  0  0  0  0  0  0  0  0  0  0  0
    4.2256    2.4341    0.7190 C   0  0  0  0  0  0  0  0  0  0  0  0
    4.6567    1.4347   -1.2284 C   0  0  0  0  0  0  0  0  0  0  0  0
    4.9808    3.2593   -0.0815 C   0  0  0  0  0  0  0  0  0  0  0  0
   -1.6135   -0.6498    2.0680 H   0  0  0  0  0  0  0  0  0  0  0  0
    1.6977   -3.5565    0.3623 H   0  0  0  0  0  0  0  0  0  0  0  0
   -3.2662   -1.6942    0.7264 H   0  0  0  0  0  0  0  0  0  0  0  0
    0.3246    0.3994    2.5162 H   0  0  0  0  0  0  0  0  0  0  0  0
   -0.7097    1.6558    1.9027 H   0  0  0  0  0  0  0  0  0  0  0  0
    0.5188    1.7622   -0.1874 H   0  0  0  0  0  0  0  0  0  0  0  0
    1.6046    1.8082    1.1494 H   0  0  0  0  0  0  0  0  0  0  0  0
    3.3230   -0.0161    1.5077 H   0  0  0  0  0  0  0  0  0  0  0  0
   -2.4417   -1.5362   -2.1832 H   0  0  0  0  0  0  0  0  0  0  0  0
   -2.8343   -2.9516   -1.1926 H   0  0  0  0  0  0  0  0  0  0  0  0
   -3.6104    0.4407    2.0017 H   0  0  0  0  0  0  0  0  0  0  0  0
   -0.4043   -2.6350    2.5360 H   0  0  0  0  0  0  0  0  0  0  0  0
   -0.3140   -3.7547    1.1667 H   0  0  0  0  0  0  0  0  0  0  0  0
   -1.8314   -2.9936    1.5701 H   0  0  0  0  0  0  0  0  0  0  0  0
    2.1510   -0.8413   -2.0056 H   0  0  0  0  0  0  0  0  0  0  0  0
    1.9547    0.9169   -1.9510 H   0  0  0  0  0  0  0  0  0  0  0  0
    0.5556   -0.1288   -1.8681 H   0  0  0  0  0  0  0  0  0  0  0  0
   -1.4694    0.5990   -1.7737 H   0  0  0  0  0  0  0  0  0  0  0  0
   -5.7889    0.2476   -2.0990 H   0  0  0  0  0  0  0  0  0  0  0  0
   -4.7656   -1.1045   -2.6159 H   0  0  0  0  0  0  0  0  0  0  0  0
   -4.0882    0.5167   -2.3736 H   0  0  0  0  0  0  0  0  0  0  0  0
   -6.6249   -1.1124   -0.2072 H   0  0  0  0  0  0  0  0  0  0  0  0
   -5.5509   -1.7053    1.0414 H   0  0  0  0  0  0  0  0  0  0  0  0
   -5.5546   -2.4898   -0.5557 H   0  0  0  0  0  0  0  0  0  0  0  0
   -1.8550    2.9598   -1.7858 H   0  0  0  0  0  0  0  0  0  0  0  0
    3.8769    2.6622    1.7160 H   0  0  0  0  0  0  0  0  0  0  0  0
    4.7805    0.8282   -2.1140 H   0  0  0  0  0  0  0  0  0  0  0  0
    5.3890    4.2517    0.0420 H   0  0  0  0  0  0  0  0  0  0  0  0
  1  9  1  0  0  0  0
  1 14  1  0  0  0  0
  2 21  1  0  0  0  0
  2 23  1  0  0  0  0
  3 19  1  0  0  0  0
  3 25  1  0  0  0  0
  4 21  1  0  0  0  0
  4 31  1  0  0  0  0
  5 18  2  0  0  0  0
  6 25  2  0  0  0  0
  7 33  1  0  0  0  0
  7 34  1  0  0  0  0
  8 31  2  0  0  0  0
  9 10  1  0  0  0  0
  9 12  1  0  0  0  0
  9 14  1  0  0  0  0
 10 11  1  0  0  0  0
 10 18  1  0  0  0  0
 10 22  1  0  0  0  0
 11 13  1  0  0  0  0
 11 16  1  0  0  0  0
 11 35  1  0  0  0  0
 12 17  1  0  0  0  0
 12 19  1  0  0  0  0
 12 24  1  0  0  0  0
 13 15  1  0  0  0  0
 13 21  1  0  0  0  0
 13 26  1  0  0  0  0
 14 25  1  0  0  0  0
 14 36  1  0  0  0  0
 15 20  1  0  0  0  0
 15 23  1  0  0  0  0
 15 37  1  0  0  0  0
 16 17  1  0  0  0  0
 16 38  1  0  0  0  0
 16 39  1  0  0  0  0
 17 40  1  0  0  0  0
 17 41  1  0  0  0  0
 18 20  1  0  0  0  0
 19 27  1  0  0  0  0
 19 42  1  0  0  0  0
 20 43  1  0  0  0  0
 20 44  1  0  0  0  0
 21 45  1  0  0  0  0
 22 46  1  0  0  0  0
 22 47  1  0  0  0  0
 22 48  1  0  0  0  0
 23 28  1  0  0  0  0
 23 29  1  0  0  0  0
 24 49  1  0  0  0  0
 24 50  1  0  0  0  0
 24 51  1  0  0  0  0
 26 30  2  0  0  0  0
 26 52  1  0  0  0  0
 27 32  1  0  0  0  0
 27 33  2  0  0  0  0
 28 53  1  0  0  0  0
 28 54  1  0  0  0  0
 28 55  1  0  0  0  0
 29 56  1  0  0  0  0
 29 57  1  0  0  0  0
 29 58  1  0  0  0  0
 30 31  1  0  0  0  0
 30 59  1  0  0  0  0
 32 34  2  0  0  0  0
 32 60  1  0  0  0  0
 33 61  1  0  0  0  0
 34 62  1  0  0  0  0
M  END
> <PUBCHEM_COMPOUND_CID>
131752312

> <PUBCHEM_CONFORMER_RMSD>
0.8

> <PUBCHEM_CONFORMER_DIVERSEORDER>
1
6
4
2
5
3

> <PUBCHEM_MMFF94_PARTIAL_CHARGES>
32
1 -0.3
10 0.16
12 0.09
13 0.14
14 0.05
18 0.45
19 0.46
2 -0.56
20 0.06
21 0.56
23 0.28
25 0.72
26 -0.29
27 -0.18
3 -0.43
30 -0.14
31 0.71
32 -0.15
33 -0.01
34 -0.01
36 0.1
4 -0.43
5 -0.57
52 0.15
59 0.15
6 -0.57
60 0.15
61 0.15
62 0.15
7 -0.28
8 -0.57
9 -0.04

> <PUBCHEM_EFFECTIVE_ROTOR_COUNT>
2.8

> <PUBCHEM_PHARMACOPHORE_FEATURES>
13
1 1 acceptor
1 2 acceptor
1 5 acceptor
1 6 acceptor
1 7 acceptor
1 8 acceptor
3 23 28 29 hydrophobe
5 2 13 15 21 23 rings
5 7 27 32 33 34 rings
6 10 11 13 15 18 20 rings
6 4 13 21 26 30 31 rings
6 9 10 11 12 16 17 rings
7 1 3 9 12 14 19 25 rings

> <PUBCHEM_HEAVY_ATOM_COUNT>
34

> <PUBCHEM_ATOM_DEF_STEREO_COUNT>
6

> <PUBCHEM_ATOM_UDEF_STEREO_COUNT>
3

> <PUBCHEM_BOND_DEF_STEREO_COUNT>
0

> <PUBCHEM_BOND_UDEF_STEREO_COUNT>
0

> <PUBCHEM_ISOTOPIC_ATOM_COUNT>
0

> <PUBCHEM_COMPONENT_COUNT>
1

> <PUBCHEM_CACTVS_TAUTO_COUNT>
2

> <PUBCHEM_CONFORMER_ID>
07DA617800000001

> <PUBCHEM_MMFF94_ENERGY>
131.0467

> <PUBCHEM_FEATURE_SELFOVERLAP>
66.383

> <PUBCHEM_SHAPE_FINGERPRINT>
10670039 82 18336555988353304932
10759866 29 18341895212205929702
10863032 1 18413389860311246290
1100329 8 17977104888082416037
11513181 2 18342465785721053340
12107698 1 18337106752877676722
12403260 363 18335692798293792490
12788726 201 18410848897650671313
13140716 1 17903922497406254968
13224815 77 18335416803848254187
13583140 156 17608664812240271689
13617811 41 18266164201539025325
13782708 43 13254508817111546837
14251764 38 18338517426390961548
14713325 29 18044668735147964050
14790565 3 18341054013070582697
14840074 17 18343025532018871517
14955137 171 17760665671677365586
15219462 58 16443907129285081897
15575132 122 18409166628012848085
15840311 113 18261678070092027533
17492 54 18269260409255304943
18681886 176 18271238310510139314
19319366 153 18337381742638607618
21033648 29 16515685507678080815
21709351 56 18194680363080019430
22149856 69 18115611334702187235
22393880 68 18271535212766537164
22907989 373 18269537391722922629
23522609 53 17917169259749140865
23559900 14 18271802359916808834
350125 39 18340486656132347971
46194498 28 18201166477168200286
469060 322 17901691554090617587
474 4 18113900519835416398
563151 74 15069727803677483324
6034566 193 17462302540383466940
6036956 94 16244061433182230292
6086070 43 17753870745689084414
6287921 2 18261965037392756908
6371009 1 18335967736699712632
9981440 41 18192991745912946202

> <PUBCHEM_SHAPE_MULTIPOLES>
652.75
10.59
4.2
1.45
2.69
1.36
-0.16
4.46
-2.52
2.01
0.25
-0.41
-0.17
-1.03

> <PUBCHEM_SHAPE_SELFOVERLAP>
1459.745

> <PUBCHEM_SHAPE_VOLUME>
341.5

> <PUBCHEM_COORDINATE_TYPE>
2
5
10

$$$$
