101297596
  -OEChem-02172602523D

 42 45  0     1  0  0  0  0  0999 V2000
   -3.5354    2.3359    0.1079 O   0  0  0  0  0  0  0  0  0  0  0  0
   -4.0538    0.3418    1.9854 O   0  0  0  0  0  0  0  0  0  0  0  0
    4.6713    0.9803    0.5336 O   0  0  0  0  0  0  0  0  0  0  0  0
    3.1134    2.8054   -0.8616 O   0  0  0  0  0  0  0  0  0  0  0  0
   -0.4985   -3.1300   -0.9756 N   0  0  0  0  0  0  0  0  0  0  0  0
   -0.8141   -0.2153   -0.6129 C   0  0  2  0  0  0  0  0  0  0  0  0
   -0.4757   -2.5037    0.3576 C   0  0  2  0  0  0  0  0  0  0  0  0
   -1.3125   -1.2537    0.3817 C   0  0  0  0  0  0  0  0  0  0  0  0
   -0.8729   -0.8901   -2.0119 C   0  0  0  0  0  0  0  0  0  0  0  0
    0.6560    0.1314   -0.2874 C   0  0  0  0  0  0  0  0  0  0  0  0
    0.9397   -2.1507    0.8541 C   0  0  0  0  0  0  0  0  0  0  0  0
   -0.1231   -2.2316   -2.0676 C   0  0  0  0  0  0  0  0  0  0  0  0
    1.4719   -0.8079    0.3916 C   0  0  0  0  0  0  0  0  0  0  0  0
   -1.7225    1.0029   -0.6247 C   0  0  0  0  0  0  0  0  0  0  0  0
   -2.3503   -1.0870    1.2120 C   0  0  0  0  0  0  0  0  0  0  0  0
    1.2450    1.3360   -0.7143 C   0  0  0  0  0  0  0  0  0  0  0  0
   -2.7665    1.1948    0.1914 C   0  0  0  0  0  0  0  0  0  0  0  0
    2.8147   -0.5012    0.6681 C   0  0  0  0  0  0  0  0  0  0  0  0
   -3.1295    0.1685    1.1977 C   0  0  0  0  0  0  0  0  0  0  0  0
    2.5835    1.6233   -0.4382 C   0  0  0  0  0  0  0  0  0  0  0  0
    3.3658    0.7090    0.2573 C   0  0  0  0  0  0  0  0  0  0  0  0
   -4.6086    2.1545   -0.7959 C   0  0  0  0  0  0  0  0  0  0  0  0
    5.4020   -0.0126    1.2516 C   0  0  0  0  0  0  0  0  0  0  0  0
   -0.8806   -3.2544    1.0484 H   0  0  0  0  0  0  0  0  0  0  0  0
   -0.4578   -0.2254   -2.7816 H   0  0  0  0  0  0  0  0  0  0  0  0
   -1.9210   -1.0695   -2.2939 H   0  0  0  0  0  0  0  0  0  0  0  0
    1.6400   -2.9443    0.5624 H   0  0  0  0  0  0  0  0  0  0  0  0
    0.9243   -2.1297    1.9529 H   0  0  0  0  0  0  0  0  0  0  0  0
   -0.3432   -2.7257   -3.0211 H   0  0  0  0  0  0  0  0  0  0  0  0
    0.9606   -2.0716   -2.0643 H   0  0  0  0  0  0  0  0  0  0  0  0
   -1.4413   -3.4805   -1.1500 H   0  0  0  0  0  0  0  0  0  0  0  0
   -1.5211    1.7693   -1.3710 H   0  0  0  0  0  0  0  0  0  0  0  0
   -2.6509   -1.8545    1.9163 H   0  0  0  0  0  0  0  0  0  0  0  0
    0.6657    2.0615   -1.2787 H   0  0  0  0  0  0  0  0  0  0  0  0
    3.3775   -1.2582    1.2052 H   0  0  0  0  0  0  0  0  0  0  0  0
    2.4269    3.3144   -1.3258 H   0  0  0  0  0  0  0  0  0  0  0  0
   -5.1983    3.0760   -0.8140 H   0  0  0  0  0  0  0  0  0  0  0  0
   -5.2671    1.3393   -0.4762 H   0  0  0  0  0  0  0  0  0  0  0  0
   -4.2456    1.9672   -1.8127 H   0  0  0  0  0  0  0  0  0  0  0  0
    6.4180    0.3722    1.3889 H   0  0  0  0  0  0  0  0  0  0  0  0
    5.4897   -0.9421    0.6789 H   0  0  0  0  0  0  0  0  0  0  0  0
    4.9868   -0.1754    2.2521 H   0  0  0  0  0  0  0  0  0  0  0  0
  1 17  1  0  0  0  0
  1 22  1  0  0  0  0
  2 19  2  0  0  0  0
  3 21  1  0  0  0  0
  3 23  1  0  0  0  0
  4 20  1  0  0  0  0
  4 36  1  0  0  0  0
  5  7  1  0  0  0  0
  5 12  1  0  0  0  0
  5 31  1  0  0  0  0
  6  8  1  0  0  0  0
  6  9  1  0  0  0  0
  6 10  1  0  0  0  0
  6 14  1  0  0  0  0
  7  8  1  0  0  0  0
  7 11  1  0  0  0  0
  7 24  1  0  0  0  0
  8 15  2  0  0  0  0
  9 12  1  0  0  0  0
  9 25  1  0  0  0  0
  9 26  1  0  0  0  0
 10 13  1  0  0  0  0
 10 16  2  0  0  0  0
 11 13  1  0  0  0  0
 11 27  1  0  0  0  0
 11 28  1  0  0  0  0
 12 29  1  0  0  0  0
 12 30  1  0  0  0  0
 13 18  2  0  0  0  0
 14 17  2  0  0  0  0
 14 32  1  0  0  0  0
 15 19  1  0  0  0  0
 15 33  1  0  0  0  0
 16 20  1  0  0  0  0
 16 34  1  0  0  0  0
 17 19  1  0  0  0  0
 18 21  1  0  0  0  0
 18 35  1  0  0  0  0
 20 21  2  0  0  0  0
 22 37  1  0  0  0  0
 22 38  1  0  0  0  0
 22 39  1  0  0  0  0
 23 40  1  0  0  0  0
 23 41  1  0  0  0  0
 23 42  1  0  0  0  0
M  END
> <PUBCHEM_COMPOUND_CID>
101297596

> <PUBCHEM_CONFORMER_RMSD>
0.6

> <PUBCHEM_CONFORMER_DIVERSEORDER>
2
1

> <PUBCHEM_MMFF94_PARTIAL_CHARGES>
28
1 -0.36
10 -0.14
11 0.14
12 0.27
13 -0.14
14 -0.29
15 -0.14
16 -0.15
17 0.09
18 -0.15
19 0.54
2 -0.57
20 0.08
21 0.08
22 0.28
23 0.28
3 -0.36
31 0.36
32 0.15
33 0.15
34 0.15
35 0.15
36 0.45
4 -0.53
5 -0.9
6 0.42
7 0.41
8 -0.28

> <PUBCHEM_EFFECTIVE_ROTOR_COUNT>
2.8

> <PUBCHEM_PHARMACOPHORE_FEATURES>
10
1 1 acceptor
1 2 acceptor
1 3 acceptor
1 4 donor
1 5 cation
1 5 donor
6 10 13 16 18 20 21 rings
6 5 6 7 8 9 12 rings
6 6 7 8 10 11 13 rings
6 6 8 14 15 17 19 rings

> <PUBCHEM_HEAVY_ATOM_COUNT>
23

> <PUBCHEM_ATOM_DEF_STEREO_COUNT>
2

> <PUBCHEM_ATOM_UDEF_STEREO_COUNT>
0

> <PUBCHEM_BOND_DEF_STEREO_COUNT>
0

> <PUBCHEM_BOND_UDEF_STEREO_COUNT>
0

> <PUBCHEM_ISOTOPIC_ATOM_COUNT>
0

> <PUBCHEM_COMPONENT_COUNT>
1

> <PUBCHEM_CACTVS_TAUTO_COUNT>
5

> <PUBCHEM_CONFORMER_ID>
0609ADBC00000002

> <PUBCHEM_MMFF94_ENERGY>
74.6494

> <PUBCHEM_FEATURE_SELFOVERLAP>
52.343

> <PUBCHEM_SHAPE_FINGERPRINT>
10764073 3 17027108914026117927
10948715 1 18341046333173042119
11578080 2 15432271713306095190
11640471 11 17774426180047308261
12173636 292 18192713577638734798
12251169 10 18113622304253632465
12403259 118 18260544536983846705
12633257 1 17386002823773306089
12788726 201 18053660566482251191
12892183 10 17458919248156362713
13004483 165 17624689455001443703
13134695 92 17547301008217746551
13140716 1 18187640345215918064
133893 2 17343802386636399495
13544653 18 11819282177974849354
13583140 156 17313374630523901617
13681431 1 17196309425783295879
14142880 1 18262783185554352511
14178342 30 16371022758653704393
15209289 33 16805322206377864992
15309172 13 18413393128875842881
15534591 1 18272643575846935414
15906896 17 18269269226274946711
16945 1 18187093874735441971
1813 80 13118573891712715923
19784866 240 13623827063357102233
20600515 1 13912905084894140940
21403212 168 18191572078157686432
21524375 3 18271812353788585779
21731228 192 18412552019581511107
21756936 100 18119259604150692396
23419403 2 16448109368137115951
23559900 14 17607542227774472079
2748010 2 17902495009807643302
298252 57 17989197136095885855
474 4 18266172842981219149
5706482 22 18343301500283369883
59554788 248 18341906203122133791
633830 44 17202784595735188049
81228 2 17767959101708293315
8272917 22 18123185710927804749
9862522 239 18409439284999193316

> <PUBCHEM_SHAPE_MULTIPOLES>
444.87
7.73
2.91
1.56
3.81
0.58
0.31
-6
-3.26
-0.62
0.92
-0.74
0.63
-0.21

> <PUBCHEM_SHAPE_SELFOVERLAP>
984.059

> <PUBCHEM_SHAPE_VOLUME>
235.7

> <PUBCHEM_COORDINATE_TYPE>
2
5
10

$$$$
