131752315
  -OEChem-02172602533D

 29 29  0     0  0  0  0  0  0999 V2000
    2.3729   -1.9665   -0.4881 S   0  0  0  0  0  0  0  0  0  0  0  0
    4.2375    0.6916   -0.6577 S   0  0  0  0  0  0  0  0  0  0  0  0
    4.2245   -1.2437    0.0313 S   0  0  0  0  0  0  0  0  0  0  0  0
   -0.5196    0.3131   -0.4811 C   0  0  0  0  0  0  0  0  0  0  0  0
   -1.5397    0.7001    0.5895 C   0  0  0  0  0  0  0  0  0  0  0  0
    0.8810    0.2703    0.0698 C   0  0  0  0  0  0  0  0  0  0  0  0
    1.3009   -1.0504    0.6676 C   0  0  0  0  0  0  0  0  0  0  0  0
   -2.9149    0.8482    0.0008 C   0  0  0  0  0  0  0  0  0  0  0  0
    1.6706    1.3622    0.0097 C   0  0  0  0  0  0  0  0  0  0  0  0
   -3.8859   -0.0820   -0.0684 C   0  0  0  0  0  0  0  0  0  0  0  0
    3.0817    1.4855    0.5032 C   0  0  0  0  0  0  0  0  0  0  0  0
   -5.2447    0.1317   -0.6727 C   0  0  0  0  0  0  0  0  0  0  0  0
   -3.6643   -1.4599    0.4960 C   0  0  0  0  0  0  0  0  0  0  0  0
   -0.5680    1.0353   -1.3081 H   0  0  0  0  0  0  0  0  0  0  0  0
   -0.7760   -0.6553   -0.9299 H   0  0  0  0  0  0  0  0  0  0  0  0
   -1.2656    1.6647    1.0371 H   0  0  0  0  0  0  0  0  0  0  0  0
   -1.5285   -0.0135    1.4204 H   0  0  0  0  0  0  0  0  0  0  0  0
    1.7916   -0.9172    1.6380 H   0  0  0  0  0  0  0  0  0  0  0  0
    0.4216   -1.6736    0.8656 H   0  0  0  0  0  0  0  0  0  0  0  0
   -3.1227    1.8271   -0.4290 H   0  0  0  0  0  0  0  0  0  0  0  0
    1.2628    2.2664   -0.4403 H   0  0  0  0  0  0  0  0  0  0  0  0
    3.3407    2.5490    0.5513 H   0  0  0  0  0  0  0  0  0  0  0  0
    3.1998    1.0960    1.5197 H   0  0  0  0  0  0  0  0  0  0  0  0
   -5.4023   -0.5535   -1.5117 H   0  0  0  0  0  0  0  0  0  0  0  0
   -5.3624    1.1534   -1.0484 H   0  0  0  0  0  0  0  0  0  0  0  0
   -6.0260   -0.0422    0.0742 H   0  0  0  0  0  0  0  0  0  0  0  0
   -4.2593   -1.5918    1.4058 H   0  0  0  0  0  0  0  0  0  0  0  0
   -3.9846   -2.2148   -0.2312 H   0  0  0  0  0  0  0  0  0  0  0  0
   -2.6236   -1.6905    0.7334 H   0  0  0  0  0  0  0  0  0  0  0  0
  1  3  1  0  0  0  0
  1  7  1  0  0  0  0
  2  3  1  0  0  0  0
  2 11  1  0  0  0  0
  4  5  1  0  0  0  0
  4  6  1  0  0  0  0
  4 14  1  0  0  0  0
  4 15  1  0  0  0  0
  5  8  1  0  0  0  0
  5 16  1  0  0  0  0
  5 17  1  0  0  0  0
  6  7  1  0  0  0  0
  6  9  2  0  0  0  0
  7 18  1  0  0  0  0
  7 19  1  0  0  0  0
  8 10  2  0  0  0  0
  8 20  1  0  0  0  0
  9 11  1  0  0  0  0
  9 21  1  0  0  0  0
 10 12  1  0  0  0  0
 10 13  1  0  0  0  0
 11 22  1  0  0  0  0
 11 23  1  0  0  0  0
 12 24  1  0  0  0  0
 12 25  1  0  0  0  0
 12 26  1  0  0  0  0
 13 27  1  0  0  0  0
 13 28  1  0  0  0  0
 13 29  1  0  0  0  0
M  END
> <PUBCHEM_COMPOUND_CID>
131752315

> <PUBCHEM_CONFORMER_RMSD>
0.6

> <PUBCHEM_CONFORMER_DIVERSEORDER>
1
85
55
10
73
71
26
21
31
79
90
38
76
3
97
24
20
49
58
6
29
16
70
98
63
17
19
28
18
15
74
77
83
48
8
54
80
47
94
69
72
34
45
30
81
11
101
51
65
62
100
86
50
68
13
61
46
67
88
37
9
4
87
12
32
41
25
103
27
14
66
82
93
43
42
2
102
40
59
33
7
56
39
91
23
75
95
60
64
84
89
44
22
36
5
35
53
57
99
52
92
78
96

> <PUBCHEM_MMFF94_PARTIAL_CHARGES>
14
1 -0.23
10 -0.28
11 0.37
12 0.14
13 0.14
2 -0.23
20 0.15
21 0.15
4 0.14
5 0.14
6 -0.28
7 0.37
8 -0.29
9 -0.29

> <PUBCHEM_EFFECTIVE_ROTOR_COUNT>
4

> <PUBCHEM_PHARMACOPHORE_FEATURES>
2
3 10 12 13 hydrophobe
7 1 2 3 6 7 9 11 rings

> <PUBCHEM_HEAVY_ATOM_COUNT>
13

> <PUBCHEM_ATOM_DEF_STEREO_COUNT>
0

> <PUBCHEM_ATOM_UDEF_STEREO_COUNT>
0

> <PUBCHEM_BOND_DEF_STEREO_COUNT>
0

> <PUBCHEM_BOND_UDEF_STEREO_COUNT>
0

> <PUBCHEM_ISOTOPIC_ATOM_COUNT>
0

> <PUBCHEM_COMPONENT_COUNT>
1

> <PUBCHEM_CACTVS_TAUTO_COUNT>
1

> <PUBCHEM_CONFORMER_ID>
07DA617B00000001

> <PUBCHEM_MMFF94_ENERGY>
0.523

> <PUBCHEM_FEATURE_SELFOVERLAP>
10.148

> <PUBCHEM_SHAPE_FINGERPRINT>
11471102 20 18410575085190651604
11615757 297 17918280852317858832
11806522 49 18410857637998438218
12616999 72 18335991917486512142
12932764 1 17131821075938773745
14251717 144 18411420583767850430
15477762 27 18342458093539990510
15536298 74 18412544314346820090
17834072 33 18343579655413722439
17834074 16 18410858767263847550
17834076 25 13767924624106394284
18186145 218 17967810527372007473
200 152 18202561778856070017
20279233 1 17749111088885765553
20645477 56 17967809436814688197
20645477 70 18341047437164409711
221490 88 18336273443328019354
22485316 2 18187082840927275367
22959321 4 18412546504753663314
23402539 116 16877937269473959796
23402655 69 18410012130504497629
23557571 272 17603580790405712501
23559900 14 18410007766759845665
23596394 208 18187636964585656310
2871803 45 18333730186943618734
3060560 45 18343023302857018158
3545911 37 18335422383195433389
42630746 31 18272365391500650936
4990 188 18272378563875249668
5104073 3 18411702075581364449
522135 26 18411136931321751060
58051976 378 18412545418090001271
581208 293 18334576854205485776
7364860 26 18272086106477252376
77779 3 18411139130118166217
81539 233 18334013930132488766
9709674 26 18261395619598454347

> <PUBCHEM_SHAPE_MULTIPOLES>
279.08
10.28
1.79
0.84
7.62
0.5
-0.02
1.01
-1.52
-1.47
0.07
-0.04
0.03
0.27

> <PUBCHEM_SHAPE_SELFOVERLAP>
501.585

> <PUBCHEM_SHAPE_VOLUME>
178.3

> <PUBCHEM_COORDINATE_TYPE>
2
5
10

$$$$
