131752311
  -OEChem-02172602533D

 73 77  0     1  0  0  0  0  0999 V2000
   -2.2715   -2.5093   -0.0834 O   0  0  0  0  0  0  0  0  0  0  0  0
   -4.1915   -0.8508    1.1742 O   0  0  0  0  0  0  0  0  0  0  0  0
    0.4524   -3.6828    0.6505 O   0  0  0  0  0  0  0  0  0  0  0  0
    1.9937    2.1419   -1.8804 O   0  0  0  0  0  0  0  0  0  0  0  0
    2.9666   -3.3141    0.0577 O   0  0  0  0  0  0  0  0  0  0  0  0
   -3.7984   -2.2305    2.9376 O   0  0  0  0  0  0  0  0  0  0  0  0
    4.9127    0.1599   -0.7448 O   0  0  0  0  0  0  0  0  0  0  0  0
   -5.9676    2.3037   -1.6027 O   0  0  0  0  0  0  0  0  0  0  0  0
    2.7493    3.6720    2.0626 O   0  0  0  0  0  0  0  0  0  0  0  0
    3.9566    3.7120    0.0974 O   0  0  0  0  0  0  0  0  0  0  0  0
   -1.4854   -1.3114    0.1694 C   0  0  1  0  0  0  0  0  0  0  0  0
   -0.0258   -1.5220   -0.4127 C   0  0  1  0  0  0  0  0  0  0  0  0
   -2.2228    0.0207   -0.0897 C   0  0  1  0  0  0  0  0  0  0  0  0
    0.6315   -0.1109   -0.6317 C   0  0  1  0  0  0  0  0  0  0  0  0
   -2.1329   -2.1424    1.2768 C   0  0  1  0  0  0  0  0  0  0  0  0
    2.1851   -0.0611   -0.9586 C   0  0  2  0  0  0  0  0  0  0  0  0
   -1.7485    0.5821   -1.4409 C   0  0  0  0  0  0  0  0  0  0  0  0
   -0.2336    0.8080   -1.5300 C   0  0  0  0  0  0  0  0  0  0  0  0
    0.8422   -2.3166    0.6021 C   0  0  2  0  0  0  0  0  0  0  0  0
   -3.7645   -0.2950   -0.1091 C   0  0  2  0  0  0  0  0  0  0  0  0
    2.9403   -0.8966    0.1246 C   0  0  1  0  0  0  0  0  0  0  0  0
   -0.1174   -2.3161   -1.7481 C   0  0  0  0  0  0  0  0  0  0  0  0
   -1.9384    1.0423    1.0465 C   0  0  0  0  0  0  0  0  0  0  0  0
    2.3157   -2.2832    0.2254 C   0  0  0  0  0  0  0  0  0  0  0  0
   -3.4347   -1.7540    1.8697 C   0  0  0  0  0  0  0  0  0  0  0  0
    2.6537    1.4177   -0.8574 C   0  0  2  0  0  0  0  0  0  0  0  0
    2.5561   -0.5377   -2.3794 C   0  0  0  0  0  0  0  0  0  0  0  0
    4.4573   -1.0079   -0.0637 C   0  0  0  0  0  0  0  0  0  0  0  0
   -4.6873    0.8665   -0.4419 C   0  0  0  0  0  0  0  0  0  0  0  0
    2.2809    1.9898    0.4985 C   0  0  0  0  0  0  0  0  0  0  0  0
    4.7991   -2.2145   -0.9322 C   0  0  0  0  0  0  0  0  0  0  0  0
    5.1641   -1.0952    1.2864 C   0  0  0  0  0  0  0  0  0  0  0  0
   -5.2277    1.8119    0.4620 C   0  0  0  0  0  0  0  0  0  0  0  0
   -5.1671    1.2086   -1.6848 C   0  0  0  0  0  0  0  0  0  0  0  0
    3.1074    3.2162    0.8250 C   0  0  0  0  0  0  0  0  0  0  0  0
   -5.9993    2.6645   -0.2929 C   0  0  0  0  0  0  0  0  0  0  0  0
    3.4495    4.8343    2.5179 C   0  0  0  0  0  0  0  0  0  0  0  0
    0.5687    0.3077    0.3733 H   0  0  0  0  0  0  0  0  0  0  0  0
   -1.5025   -2.7487    1.9118 H   0  0  0  0  0  0  0  0  0  0  0  0
   -2.2488    1.5306   -1.6713 H   0  0  0  0  0  0  0  0  0  0  0  0
   -2.0480   -0.1084   -2.2396 H   0  0  0  0  0  0  0  0  0  0  0  0
    0.0431    0.7316   -2.5853 H   0  0  0  0  0  0  0  0  0  0  0  0
   -0.0989    1.8506   -1.2268 H   0  0  0  0  0  0  0  0  0  0  0  0
    0.7460   -1.8992    1.6116 H   0  0  0  0  0  0  0  0  0  0  0  0
   -3.9818   -1.0673   -0.8606 H   0  0  0  0  0  0  0  0  0  0  0  0
    2.7575   -0.4943    1.1239 H   0  0  0  0  0  0  0  0  0  0  0  0
    0.8513   -2.6959   -2.0720 H   0  0  0  0  0  0  0  0  0  0  0  0
   -0.5324   -1.7181   -2.5629 H   0  0  0  0  0  0  0  0  0  0  0  0
   -0.7458   -3.2088   -1.6624 H   0  0  0  0  0  0  0  0  0  0  0  0
   -2.3759    0.7314    2.0005 H   0  0  0  0  0  0  0  0  0  0  0  0
   -2.3559    2.0247    0.8006 H   0  0  0  0  0  0  0  0  0  0  0  0
   -0.8824    1.2020    1.2541 H   0  0  0  0  0  0  0  0  0  0  0  0
    3.6866    1.6237   -1.0938 H   0  0  0  0  0  0  0  0  0  0  0  0
    1.9246   -0.0703   -3.1411 H   0  0  0  0  0  0  0  0  0  0  0  0
    2.4373   -1.6094   -2.5175 H   0  0  0  0  0  0  0  0  0  0  0  0
    3.5814   -0.2856   -2.6657 H   0  0  0  0  0  0  0  0  0  0  0  0
    0.9415   -4.1014    1.3794 H   0  0  0  0  0  0  0  0  0  0  0  0
    1.2438    2.3427    0.5135 H   0  0  0  0  0  0  0  0  0  0  0  0
    2.4525    1.3284    1.3451 H   0  0  0  0  0  0  0  0  0  0  0  0
    5.7364   -1.9956   -1.4665 H   0  0  0  0  0  0  0  0  0  0  0  0
    5.0556   -3.1124   -0.3568 H   0  0  0  0  0  0  0  0  0  0  0  0
    4.1149   -2.4593   -1.7438 H   0  0  0  0  0  0  0  0  0  0  0  0
    4.8265   -1.9557    1.8730 H   0  0  0  0  0  0  0  0  0  0  0  0
    4.9963   -0.1853    1.8743 H   0  0  0  0  0  0  0  0  0  0  0  0
    6.2490   -1.1762    1.1524 H   0  0  0  0  0  0  0  0  0  0  0  0
    2.2322    3.0801   -1.7896 H   0  0  0  0  0  0  0  0  0  0  0  0
   -5.0778    1.8705    1.5307 H   0  0  0  0  0  0  0  0  0  0  0  0
    5.8833    0.1255   -0.7942 H   0  0  0  0  0  0  0  0  0  0  0  0
   -5.0400    0.7975   -2.6758 H   0  0  0  0  0  0  0  0  0  0  0  0
   -6.6020    3.5304   -0.0612 H   0  0  0  0  0  0  0  0  0  0  0  0
    3.0715    5.0917    3.5109 H   0  0  0  0  0  0  0  0  0  0  0  0
    3.2655    5.6757    1.8430 H   0  0  0  0  0  0  0  0  0  0  0  0
    4.5209    4.6255    2.5931 H   0  0  0  0  0  0  0  0  0  0  0  0
  1 11  1  0  0  0  0
  1 15  1  0  0  0  0
  2 20  1  0  0  0  0
  2 25  1  0  0  0  0
  3 19  1  0  0  0  0
  3 57  1  0  0  0  0
  4 26  1  0  0  0  0
  4 66  1  0  0  0  0
  5 24  2  0  0  0  0
  6 25  2  0  0  0  0
  7 28  1  0  0  0  0
  7 68  1  0  0  0  0
  8 34  1  0  0  0  0
  8 36  1  0  0  0  0
  9 35  1  0  0  0  0
  9 37  1  0  0  0  0
 10 35  2  0  0  0  0
 11 12  1  0  0  0  0
 11 13  1  0  0  0  0
 11 15  1  0  0  0  0
 12 14  1  0  0  0  0
 12 19  1  0  0  0  0
 12 22  1  0  0  0  0
 13 17  1  0  0  0  0
 13 20  1  0  0  0  0
 13 23  1  0  0  0  0
 14 16  1  0  0  0  0
 14 18  1  0  0  0  0
 14 38  1  0  0  0  0
 15 25  1  0  0  0  0
 15 39  1  0  0  0  0
 16 21  1  0  0  0  0
 16 26  1  0  0  0  0
 16 27  1  0  0  0  0
 17 18  1  0  0  0  0
 17 40  1  0  0  0  0
 17 41  1  0  0  0  0
 18 42  1  0  0  0  0
 18 43  1  0  0  0  0
 19 24  1  0  0  0  0
 19 44  1  0  0  0  0
 20 29  1  0  0  0  0
 20 45  1  0  0  0  0
 21 24  1  0  0  0  0
 21 28  1  0  0  0  0
 21 46  1  0  0  0  0
 22 47  1  0  0  0  0
 22 48  1  0  0  0  0
 22 49  1  0  0  0  0
 23 50  1  0  0  0  0
 23 51  1  0  0  0  0
 23 52  1  0  0  0  0
 26 30  1  0  0  0  0
 26 53  1  0  0  0  0
 27 54  1  0  0  0  0
 27 55  1  0  0  0  0
 27 56  1  0  0  0  0
 28 31  1  0  0  0  0
 28 32  1  0  0  0  0
 29 33  1  0  0  0  0
 29 34  2  0  0  0  0
 30 35  1  0  0  0  0
 30 58  1  0  0  0  0
 30 59  1  0  0  0  0
 31 60  1  0  0  0  0
 31 61  1  0  0  0  0
 31 62  1  0  0  0  0
 32 63  1  0  0  0  0
 32 64  1  0  0  0  0
 32 65  1  0  0  0  0
 33 36  2  0  0  0  0
 33 67  1  0  0  0  0
 34 69  1  0  0  0  0
 36 70  1  0  0  0  0
 37 71  1  0  0  0  0
 37 72  1  0  0  0  0
 37 73  1  0  0  0  0
M  END
> <PUBCHEM_COMPOUND_CID>
131752311

> <PUBCHEM_CONFORMER_RMSD>
1

> <PUBCHEM_CONFORMER_DIVERSEORDER>
1
2
4
3

> <PUBCHEM_MMFF94_PARTIAL_CHARGES>
35
1 -0.3
10 -0.57
11 -0.04
12 0.09
13 0.09
15 0.05
19 0.34
2 -0.43
20 0.46
21 0.06
24 0.45
25 0.72
26 0.28
28 0.28
29 -0.18
3 -0.68
30 0.06
33 -0.15
34 -0.01
35 0.66
36 -0.01
37 0.28
39 0.1
4 -0.68
5 -0.57
57 0.4
6 -0.57
66 0.4
67 0.15
68 0.4
69 0.15
7 -0.68
70 0.15
8 -0.28
9 -0.43

> <PUBCHEM_EFFECTIVE_ROTOR_COUNT>
7.6

> <PUBCHEM_PHARMACOPHORE_FEATURES>
16
1 1 acceptor
1 10 acceptor
1 3 acceptor
1 3 donor
1 4 acceptor
1 4 donor
1 5 acceptor
1 6 acceptor
1 7 acceptor
1 7 donor
1 8 acceptor
3 28 31 32 hydrophobe
5 8 29 33 34 36 rings
6 11 12 13 14 17 18 rings
6 12 14 16 19 21 24 rings
7 1 2 11 13 15 20 25 rings

> <PUBCHEM_HEAVY_ATOM_COUNT>
37

> <PUBCHEM_ATOM_DEF_STEREO_COUNT>
8

> <PUBCHEM_ATOM_UDEF_STEREO_COUNT>
2

> <PUBCHEM_BOND_DEF_STEREO_COUNT>
0

> <PUBCHEM_BOND_UDEF_STEREO_COUNT>
0

> <PUBCHEM_ISOTOPIC_ATOM_COUNT>
0

> <PUBCHEM_COMPONENT_COUNT>
1

> <PUBCHEM_CACTVS_TAUTO_COUNT>
4

> <PUBCHEM_CONFORMER_ID>
07DA617700000001

> <PUBCHEM_MMFF94_ENERGY>
163.7727

> <PUBCHEM_FEATURE_SELFOVERLAP>
81.248

> <PUBCHEM_SHAPE_FINGERPRINT>
10439779 11 18193830449282059697
10906281 52 18191601748123998887
11456790 92 18045219341328622481
11578080 2 18336550520432493381
12128747 34 18408603639019534093
12166972 35 17489018258517793921
12422481 6 17675923183598242334
12633257 1 17676768682323224947
12925494 130 18335140882681424113
13140716 1 18260548943588215030
13402501 40 17896602786981606783
13583140 156 18409737274352302707
14790565 3 17609236871888543100
14955137 171 18339649949770539582
15131766 46 16053456390688644994
15295992 7 18411133649502506845
15326921 28 17409059832143816320
16090146 7 16630526245967460039
17980427 23 17915745267167470913
18681886 176 17987788618698518271
19304144 158 10663818529961368266
19304152 47 17831861626456324264
20642791 178 17604450573112897470
21033648 144 17842844596592418548
21033648 29 18337105799347672136
21049683 118 17677038067821371705
22122407 14 18202571648765354353
22889206 1 18263065735291369930
23559900 14 18259707791481399541
335352 9 18042128669618868183
350125 39 18261126204451982774
376196 1 18341610477058702678
4015057 19 18343574149582523721
495365 180 18409441484233465077
5104073 3 18040439909820528840
5252454 2 17911536598544094648
550186 83 16443061673151537341
6086070 43 18272090469990153111
6371380 46 18115018598464810629
9981440 41 18265601268928399881

> <PUBCHEM_SHAPE_MULTIPOLES>
702.75
11.77
4.78
2.06
9.33
4.07
-0.43
5.76
0.08
-4.43
-2.87
0.4
0.46
3.46

> <PUBCHEM_SHAPE_SELFOVERLAP>
1523.459

> <PUBCHEM_SHAPE_VOLUME>
379.8

> <PUBCHEM_COORDINATE_TYPE>
2
5
10

$$$$
