12921516
  -OEChem-02172602533D

 57 58  0     1  0  0  0  0  0999 V2000
   -0.8268   -2.4096   -1.3206 Br  0  0  0  0  0  0  0  0  0  0  0  0
    3.7490    1.7787   -1.9047 Br  0  0  0  0  0  0  0  0  0  0  0  0
    0.2826    1.1831   -0.3490 P   0  0  0  0  0  0  0  0  0  0  0  0
   -0.9084    2.0121    0.3707 O   0  0  0  0  0  0  0  0  0  0  0  0
    0.1316    1.1049   -1.8438 O   0  0  0  0  0  0  0  0  0  0  0  0
    0.2874   -0.1307    1.8578 O   0  0  0  0  0  0  0  0  0  0  0  0
    1.6298    2.1965    1.5456 O   0  0  0  0  0  0  0  0  0  0  0  0
    0.2256   -0.4066    0.4637 C   0  0  1  0  0  0  0  0  0  0  0  0
    1.7799    2.0418    0.1368 C   0  0  1  0  0  0  0  0  0  0  0  0
   -1.1597    3.3470   -0.0315 C   0  0  0  0  0  0  0  0  0  0  0  0
   -2.5705    3.7312    0.3916 C   0  0  0  0  0  0  0  0  0  0  0  0
   -3.6190    2.8320   -0.2596 C   0  0  0  0  0  0  0  0  0  0  0  0
   -5.0344    3.2510    0.1370 C   0  0  0  0  0  0  0  0  0  0  0  0
   -1.0111   -1.1913    0.1028 C   0  0  0  0  0  0  0  0  0  0  0  0
    3.0438    1.2993   -0.2258 C   0  0  0  0  0  0  0  0  0  0  0  0
   -6.0826    2.3794   -0.5363 C   0  0  0  0  0  0  0  0  0  0  0  0
   -2.1980   -1.0970    0.7316 C   0  0  0  0  0  0  0  0  0  0  0  0
    3.5980    0.3519    0.5560 C   0  0  0  0  0  0  0  0  0  0  0  0
   -3.3968   -1.8619    0.3765 C   0  0  0  0  0  0  0  0  0  0  0  0
    4.8216   -0.4038    0.2663 C   0  0  0  0  0  0  0  0  0  0  0  0
   -4.2987   -1.3514   -0.5571 C   0  0  0  0  0  0  0  0  0  0  0  0
    4.7430   -1.6365   -0.3818 C   0  0  0  0  0  0  0  0  0  0  0  0
   -3.6359   -3.1004    0.9722 C   0  0  0  0  0  0  0  0  0  0  0  0
    6.0637    0.1101    0.6391 C   0  0  0  0  0  0  0  0  0  0  0  0
   -5.4397   -2.0791   -0.8949 C   0  0  0  0  0  0  0  0  0  0  0  0
    5.9062   -2.3553   -0.6571 C   0  0  0  0  0  0  0  0  0  0  0  0
   -4.7769   -3.8281    0.6343 C   0  0  0  0  0  0  0  0  0  0  0  0
    7.2269   -0.6087    0.3638 C   0  0  0  0  0  0  0  0  0  0  0  0
   -5.6788   -3.3174   -0.2992 C   0  0  0  0  0  0  0  0  0  0  0  0
    7.1481   -1.8415   -0.2843 C   0  0  0  0  0  0  0  0  0  0  0  0
    1.1189   -0.9865    0.2140 H   0  0  0  0  0  0  0  0  0  0  0  0
    1.7815    3.0508   -0.2889 H   0  0  0  0  0  0  0  0  0  0  0  0
   -0.4333    4.0057    0.4539 H   0  0  0  0  0  0  0  0  0  0  0  0
   -1.0457    3.4421   -1.1164 H   0  0  0  0  0  0  0  0  0  0  0  0
   -2.6578    3.6446    1.4816 H   0  0  0  0  0  0  0  0  0  0  0  0
   -2.7545    4.7783    0.1256 H   0  0  0  0  0  0  0  0  0  0  0  0
   -3.4570    1.7904    0.0384 H   0  0  0  0  0  0  0  0  0  0  0  0
   -3.5146    2.8762   -1.3506 H   0  0  0  0  0  0  0  0  0  0  0  0
   -5.1530    3.1843    1.2246 H   0  0  0  0  0  0  0  0  0  0  0  0
   -5.2048    4.2967   -0.1448 H   0  0  0  0  0  0  0  0  0  0  0  0
    0.3077   -0.9828    2.3262 H   0  0  0  0  0  0  0  0  0  0  0  0
    2.3939    2.7046    1.8680 H   0  0  0  0  0  0  0  0  0  0  0  0
   -5.9961    2.4296   -1.6264 H   0  0  0  0  0  0  0  0  0  0  0  0
   -5.9785    1.3345   -0.2296 H   0  0  0  0  0  0  0  0  0  0  0  0
   -7.0873    2.7138   -0.2593 H   0  0  0  0  0  0  0  0  0  0  0  0
   -2.3269   -0.4043    1.5591 H   0  0  0  0  0  0  0  0  0  0  0  0
    3.1415    0.0966    1.5092 H   0  0  0  0  0  0  0  0  0  0  0  0
   -4.1243   -0.3906   -1.0345 H   0  0  0  0  0  0  0  0  0  0  0  0
    3.7819   -2.0499   -0.6781 H   0  0  0  0  0  0  0  0  0  0  0  0
   -2.9427   -3.5114    1.7023 H   0  0  0  0  0  0  0  0  0  0  0  0
    6.1413    1.0692    1.1455 H   0  0  0  0  0  0  0  0  0  0  0  0
   -6.1414   -1.6818   -1.6225 H   0  0  0  0  0  0  0  0  0  0  0  0
    5.8450   -3.3151   -1.1617 H   0  0  0  0  0  0  0  0  0  0  0  0
   -4.9633   -4.7923    1.0980 H   0  0  0  0  0  0  0  0  0  0  0  0
    8.1941   -0.2088    0.6540 H   0  0  0  0  0  0  0  0  0  0  0  0
   -6.5671   -3.8841   -0.5625 H   0  0  0  0  0  0  0  0  0  0  0  0
    8.0539   -2.4011   -0.4987 H   0  0  0  0  0  0  0  0  0  0  0  0
  1 14  1  0  0  0  0
  2 15  1  0  0  0  0
  3  4  1  0  0  0  0
  3  5  2  0  0  0  0
  3  8  1  0  0  0  0
  3  9  1  0  0  0  0
  4 10  1  0  0  0  0
  6  8  1  0  0  0  0
  6 41  1  0  0  0  0
  7  9  1  0  0  0  0
  7 42  1  0  0  0  0
  8 14  1  0  0  0  0
  8 31  1  0  0  0  0
  9 15  1  0  0  0  0
  9 32  1  0  0  0  0
 10 11  1  0  0  0  0
 10 33  1  0  0  0  0
 10 34  1  0  0  0  0
 11 12  1  0  0  0  0
 11 35  1  0  0  0  0
 11 36  1  0  0  0  0
 12 13  1  0  0  0  0
 12 37  1  0  0  0  0
 12 38  1  0  0  0  0
 13 16  1  0  0  0  0
 13 39  1  0  0  0  0
 13 40  1  0  0  0  0
 14 17  2  0  0  0  0
 15 18  2  0  0  0  0
 16 43  1  0  0  0  0
 16 44  1  0  0  0  0
 16 45  1  0  0  0  0
 17 19  1  0  0  0  0
 17 46  1  0  0  0  0
 18 20  1  0  0  0  0
 18 47  1  0  0  0  0
 19 21  2  0  0  0  0
 19 23  1  0  0  0  0
 20 22  2  0  0  0  0
 20 24  1  0  0  0  0
 21 25  1  0  0  0  0
 21 48  1  0  0  0  0
 22 26  1  0  0  0  0
 22 49  1  0  0  0  0
 23 27  2  0  0  0  0
 23 50  1  0  0  0  0
 24 28  2  0  0  0  0
 24 51  1  0  0  0  0
 25 29  2  0  0  0  0
 25 52  1  0  0  0  0
 26 30  2  0  0  0  0
 26 53  1  0  0  0  0
 27 29  1  0  0  0  0
 27 54  1  0  0  0  0
 28 30  1  0  0  0  0
 28 55  1  0  0  0  0
 29 56  1  0  0  0  0
 30 57  1  0  0  0  0
M  END
> <PUBCHEM_COMPOUND_CID>
12921516

> <PUBCHEM_CONFORMER_RMSD>
1

> <PUBCHEM_CONFORMER_DIVERSEORDER>
1
135
318
159
49
334
53
289
232
84
113
263
28
233
260
219
336
61
39
320
86
193
57
165
12
82
244
34
91
293
241
81
271
89
37
92
231
128
212
130
29
48
118
144
90
312
283
292
158
140
75
171
180
42
40
73
122
110
148
301
16
112
253
169
173
97
224
15
316
269
314
296
177
137
124
297
290
243
146
339
190
245
300
99
287
72
41
76
126
55
129
154
149
194
36
33
172
95
101
298
280
209
83
11
222
257
25
183
150
38
9
167
162
115
303
330
102
182
317
79
179
96
143
67
30
4
256
199
239
175
164
52
66
234
24
275
324
211
104
340
220
174
121
210
62
64
134
218
117
261
19
229
155
294
65
68
306
85
119
304
187
213
100
145
103
109
80
184
59
50
286
13
178
238
163
78
200
272
35
247
262
32
236
285
98
54
240
157
270
198
51
168
185
259
325
88
156
166
71
291
63
5
151
249
227
17
74
321
230
70
116
161
108
123
139
308
248
338
225
273
295
31
23
311
8
6
203
277
309
58
252
27
202
186
45
21
197
201
153
94
69
208
120
125
60
133
7
132
170
14
176
77
323
267
335
106
217
328
215
107
235
196
111
310
87
329
152
250
136
341
189
206
313
266
255
160
131
327
205
127
268
242
138
254
302
221
47
223
93
226
188
288
192
307
265
26
322
207
56
274
141
315
18
282
216
147
191
278
228
214
299
279
204
326
337
105
3
281
46
181
114
2
276
43
332
251
264
44
319
258
10
20
331
237
333
195
142
305
284
246
22

> <PUBCHEM_MMFF94_PARTIAL_CHARGES>
40
1 -0.11
10 0.28
14 -0.03
15 -0.03
17 -0.18
18 -0.18
19 0.03
2 -0.11
20 0.03
21 -0.15
22 -0.15
23 -0.15
24 -0.15
25 -0.15
26 -0.15
27 -0.15
28 -0.15
29 -0.15
3 0.97
30 -0.15
4 -0.55
41 0.4
42 0.4
46 0.15
47 0.15
48 0.15
49 0.15
5 -0.7
50 0.15
51 0.15
52 0.15
53 0.15
54 0.15
55 0.15
56 0.15
57 0.15
6 -0.68
7 -0.68
8 0.42
9 0.42

> <PUBCHEM_EFFECTIVE_ROTOR_COUNT>
11

> <PUBCHEM_PHARMACOPHORE_FEATURES>
9
1 1 hydrophobe
1 16 hydrophobe
1 2 hydrophobe
1 6 acceptor
1 6 donor
1 7 acceptor
1 7 donor
6 19 21 23 25 27 29 rings
6 20 22 24 26 28 30 rings

> <PUBCHEM_HEAVY_ATOM_COUNT>
30

> <PUBCHEM_ATOM_DEF_STEREO_COUNT>
0

> <PUBCHEM_ATOM_UDEF_STEREO_COUNT>
2

> <PUBCHEM_BOND_DEF_STEREO_COUNT>
2

> <PUBCHEM_BOND_UDEF_STEREO_COUNT>
0

> <PUBCHEM_ISOTOPIC_ATOM_COUNT>
0

> <PUBCHEM_COMPONENT_COUNT>
1

> <PUBCHEM_CACTVS_TAUTO_COUNT>
1

> <PUBCHEM_CONFORMER_ID>
00C52AAC00000001

> <PUBCHEM_MMFF94_ENERGY>
60.8422

> <PUBCHEM_FEATURE_SELFOVERLAP>
45.684

> <PUBCHEM_SHAPE_FINGERPRINT>
10050765 1 18409729590988509312
10815517 723 18113617842226191709
12293681 25 17701840816001537309
12422481 6 18057352563789064227
12498461 61 18118395156557884386
12645989 146 18199181983487544479
12788726 201 18265347268366955548
14347332 77 18410859896829391582
14866123 147 18337392630395975363
14931854 50 18192685966191002925
15064986 266 18413107252338473286
15183329 4 17603857923223435226
15890870 6 18334851677348883349
15927050 60 18193835934208517019
19301679 30 18337681926482284163
21236236 1 18412542085459279393
21682296 61 18340208595555170863
21703447 108 18339069519094385504
23559900 14 18120650499170962307
23622692 118 18335706061654066292
244849 19 17774135994887829088
3004659 81 17968371372886704626
4073 2 18411417277059588712
437815 12 18262795288772738207
46194498 28 17822847719184827630
513202 73 18411141367944054619
59755656 520 18263921034377282365
7164475 11 18335989760949322812

> <PUBCHEM_SHAPE_MULTIPOLES>
609.64
16.99
5.19
1.27
15.49
1.09
-0.24
-9.71
-0.92
-9.44
0.02
0.41
0.08
0.23

> <PUBCHEM_SHAPE_SELFOVERLAP>
1211.345

> <PUBCHEM_SHAPE_VOLUME>
366.4

> <PUBCHEM_COORDINATE_TYPE>
2
5
10

$$$$
