101297615
  -OEChem-02172602513D

 44 48  0     1  0  0  0  0  0999 V2000
   -1.5558   -3.7610    0.2307 O   0  0  0  0  0  0  0  0  0  0  0  0
   -1.1978    0.5225   -0.9227 N   0  0  2  0  0  0  0  0  0  0  0  0
    1.8784    1.6278    0.6638 N   0  0  0  0  0  0  0  0  0  0  0  0
   -0.9700   -0.9069   -0.4799 C   0  0  3  0  0  0  0  0  0  0  0  0
   -2.7180   -0.2020    1.0230 C   0  0  1  0  0  0  0  0  0  0  0  0
   -2.2243   -1.4682    0.1719 C   0  0  2  0  0  0  0  0  0  0  0  0
   -0.6562    1.2804    0.2294 C   0  0  1  0  0  0  0  0  0  0  0  0
   -1.5077    0.7773    1.4795 C   0  0  0  0  0  0  0  0  0  0  0  0
    0.3938   -1.3146   -1.0529 C   0  0  0  0  0  0  0  0  0  0  0  0
   -2.6070    0.8759   -1.1944 C   0  0  0  0  0  0  0  0  0  0  0  0
   -3.4697    0.6266    0.0117 C   0  0  0  0  0  0  0  0  0  0  0  0
    0.8324    0.8992    0.1847 C   0  0  0  0  0  0  0  0  0  0  0  0
    1.3498   -0.2479   -0.4499 C   0  0  0  0  0  0  0  0  0  0  0  0
   -1.9756   -2.6905    1.0553 C   0  0  0  0  0  0  0  0  0  0  0  0
    2.7610   -0.1939   -0.3337 C   0  0  0  0  0  0  0  0  0  0  0  0
   -4.7149    1.0895    0.1674 C   0  0  0  0  0  0  0  0  0  0  0  0
    3.0653    0.9853    0.3628 C   0  0  0  0  0  0  0  0  0  0  0  0
    3.8160   -1.0326   -0.7436 C   0  0  0  0  0  0  0  0  0  0  0  0
   -5.4272    1.9250   -0.8427 C   0  0  0  0  0  0  0  0  0  0  0  0
    4.3820    1.3604    0.6567 C   0  0  0  0  0  0  0  0  0  0  0  0
    5.1345   -0.6655   -0.4529 C   0  0  0  0  0  0  0  0  0  0  0  0
    5.4109    0.5132    0.2358 C   0  0  0  0  0  0  0  0  0  0  0  0
   -0.5098   -0.9369    0.5222 H   0  0  0  0  0  0  0  0  0  0  0  0
   -3.3350   -0.4945    1.8783 H   0  0  0  0  0  0  0  0  0  0  0  0
   -2.9539   -1.7571   -0.5972 H   0  0  0  0  0  0  0  0  0  0  0  0
   -0.7615    2.3623    0.0870 H   0  0  0  0  0  0  0  0  0  0  0  0
   -0.8785    0.2687    2.2205 H   0  0  0  0  0  0  0  0  0  0  0  0
   -1.9431    1.6544    1.9762 H   0  0  0  0  0  0  0  0  0  0  0  0
    0.4143   -1.2709   -2.1464 H   0  0  0  0  0  0  0  0  0  0  0  0
    0.6960   -2.3145   -0.7243 H   0  0  0  0  0  0  0  0  0  0  0  0
   -2.9611    0.2806   -2.0445 H   0  0  0  0  0  0  0  0  0  0  0  0
   -2.6438    1.9291   -1.4960 H   0  0  0  0  0  0  0  0  0  0  0  0
   -2.9026   -2.9857    1.5579 H   0  0  0  0  0  0  0  0  0  0  0  0
   -1.2142   -2.5077    1.8208 H   0  0  0  0  0  0  0  0  0  0  0  0
    1.8059    2.5095    1.1528 H   0  0  0  0  0  0  0  0  0  0  0  0
   -5.2555    0.8654    1.0831 H   0  0  0  0  0  0  0  0  0  0  0  0
   -1.4139   -4.5299    0.8086 H   0  0  0  0  0  0  0  0  0  0  0  0
    3.6160   -1.9550   -1.2813 H   0  0  0  0  0  0  0  0  0  0  0  0
   -5.6060    2.9252   -0.4358 H   0  0  0  0  0  0  0  0  0  0  0  0
   -6.3990    1.4734   -1.0673 H   0  0  0  0  0  0  0  0  0  0  0  0
   -4.8930    2.0323   -1.7898 H   0  0  0  0  0  0  0  0  0  0  0  0
    4.6010    2.2766    1.1952 H   0  0  0  0  0  0  0  0  0  0  0  0
    5.9515   -1.3089   -0.7688 H   0  0  0  0  0  0  0  0  0  0  0  0
    6.4427    0.7791    0.4511 H   0  0  0  0  0  0  0  0  0  0  0  0
  1 14  1  0  0  0  0
  1 37  1  0  0  0  0
  2  4  1  0  0  0  0
  2  7  1  0  0  0  0
  2 10  1  0  0  0  0
  3 12  1  0  0  0  0
  3 17  1  0  0  0  0
  3 35  1  0  0  0  0
  4  6  1  0  0  0  0
  4  9  1  0  0  0  0
  4 23  1  0  0  0  0
  5  6  1  0  0  0  0
  5  8  1  0  0  0  0
  5 11  1  0  0  0  0
  5 24  1  0  0  0  0
  6 14  1  0  0  0  0
  6 25  1  0  0  0  0
  7  8  1  0  0  0  0
  7 12  1  0  0  0  0
  7 26  1  0  0  0  0
  8 27  1  0  0  0  0
  8 28  1  0  0  0  0
  9 13  1  0  0  0  0
  9 29  1  0  0  0  0
  9 30  1  0  0  0  0
 10 11  1  0  0  0  0
 10 31  1  0  0  0  0
 10 32  1  0  0  0  0
 11 16  2  0  0  0  0
 12 13  2  0  0  0  0
 13 15  1  0  0  0  0
 14 33  1  0  0  0  0
 14 34  1  0  0  0  0
 15 17  1  0  0  0  0
 15 18  2  0  0  0  0
 16 19  1  0  0  0  0
 16 36  1  0  0  0  0
 17 20  2  0  0  0  0
 18 21  1  0  0  0  0
 18 38  1  0  0  0  0
 19 39  1  0  0  0  0
 19 40  1  0  0  0  0
 19 41  1  0  0  0  0
 20 22  1  0  0  0  0
 20 42  1  0  0  0  0
 21 22  2  0  0  0  0
 21 43  1  0  0  0  0
 22 44  1  0  0  0  0
M  END
> <PUBCHEM_COMPOUND_CID>
101297615

> <PUBCHEM_CONFORMER_RMSD>
0.6

> <PUBCHEM_CONFORMER_DIVERSEORDER>
1
2

> <PUBCHEM_MMFF94_PARTIAL_CHARGES>
26
1 -0.68
10 0.41
11 -0.28
12 -0.33
13 -0.18
14 0.28
16 -0.29
17 -0.15
18 -0.15
19 0.14
2 -0.81
20 -0.15
21 -0.15
22 -0.15
3 0.03
35 0.27
36 0.15
37 0.4
38 0.15
4 0.27
42 0.15
43 0.15
44 0.15
5 0.14
7 0.45
9 0.18

> <PUBCHEM_EFFECTIVE_ROTOR_COUNT>
1.8

> <PUBCHEM_PHARMACOPHORE_FEATURES>
10
1 1 acceptor
1 1 donor
1 19 hydrophobe
1 2 cation
1 3 cation
1 3 donor
5 3 12 13 15 17 rings
6 15 17 18 20 21 22 rings
6 2 4 7 9 12 13 rings
8 2 4 5 6 7 8 10 11 rings

> <PUBCHEM_HEAVY_ATOM_COUNT>
22

> <PUBCHEM_ATOM_DEF_STEREO_COUNT>
2

> <PUBCHEM_ATOM_UDEF_STEREO_COUNT>
2

> <PUBCHEM_BOND_DEF_STEREO_COUNT>
1

> <PUBCHEM_BOND_UDEF_STEREO_COUNT>
0

> <PUBCHEM_ISOTOPIC_ATOM_COUNT>
0

> <PUBCHEM_COMPONENT_COUNT>
1

> <PUBCHEM_CACTVS_TAUTO_COUNT>
11

> <PUBCHEM_CONFORMER_ID>
0609ADCF00000001

> <PUBCHEM_MMFF94_ENERGY>
128.8453

> <PUBCHEM_FEATURE_SELFOVERLAP>
51.171

> <PUBCHEM_SHAPE_FINGERPRINT>
10366900 7 17489871531512877848
105312 117 17822561725712422503
107951 10 17531253829078247099
10906281 52 17987818339898690609
11045977 3 18343304782038985880
11315181 36 17632296792008345208
11405975 8 18335416902801385208
11552529 35 17844254140587956738
12011746 2 18343024346059440612
12035758 1 18335433374122323937
12236239 1 16630522908176431725
12500047 106 18407758153200422035
12507560 40 18341333408924042488
12788726 201 18058727988026008304
128620 24 10809343347667090480
12969540 114 18189319222246257461
13004483 165 17835236027916450339
13140716 1 18271251645744692248
13224815 77 17632302310814330604
13533116 47 18200308797879243306
13544592 145 18338522945534414454
13583140 156 18058167404905053808
13675066 3 18271806882432611464
13760787 19 18113338626623421402
14115302 16 18335149695310490436
14223421 5 18052821643610615578
15099037 51 18410292493174602749
15196674 1 18272931656799494716
15375358 24 18343867705790080308
15927050 60 18408601431818378691
16945 1 17774175504513172749
16988056 13 12018093473865568322
19141452 34 18335422391183870884
200 152 17060615581921763429
20645477 56 18260264144402009805
20645477 70 17703792475337553964
20681677 155 18186237342371221376
21033648 29 18336250267737789581
21065198 57 18410856607380386552
21267235 1 17988652861340528772
21279426 13 18268996375481283431
21521239 73 17846201242873632109
22224240 67 18335145263837898081
23402539 116 18410004430076749941
23493267 7 18409722988979398506
23559900 14 18412827984895707774
26918003 58 18343019995684818176
296302 2 18273215304623741596
335352 9 18342176635869503188
34934 24 18410569587574497002
3759504 43 18259985968408425703
4015057 19 18058718225739423801
4340502 62 18337961099878139923
4921388 177 17531530995965142370
5104073 3 18341889749471409242
5385378 56 18118408337479569401
56616090 46 18335703802047295589
59755656 520 18335413556969289607
633830 44 16877949381888415256
8809292 202 18411142454391315306
9709674 26 18272093820412881782

> <PUBCHEM_SHAPE_MULTIPOLES>
436.92
10.26
2.4
1.11
5.12
2.33
-0.06
-4.18
0.77
-1.88
-0.39
-0.48
0
1.37

> <PUBCHEM_SHAPE_SELFOVERLAP>
971.625

> <PUBCHEM_SHAPE_VOLUME>
233

> <PUBCHEM_COORDINATE_TYPE>
2
5
10

$$$$
