102379124
  -OEChem-02172602503D

 25 26  0     1  0  0  0  0  0999 V2000
    2.4740    0.1310    0.3806 O   0  0  0  0  0  0  0  0  0  0  0  0
    2.4656    1.4887   -0.1259 O   0  0  0  0  0  0  0  0  0  0  0  0
   -1.1676    0.6357   -0.1708 C   0  0  0  0  0  0  0  0  0  0  0  0
   -1.4434   -0.9231    0.0100 C   0  0  2  0  0  0  0  0  0  0  0  0
    0.0428    0.3381    0.8259 C   0  0  1  0  0  0  0  0  0  0  0  0
   -0.9066   -0.7393    1.4696 C   0  0  0  0  0  0  0  0  0  0  0  0
   -0.5062   -1.8640   -0.7817 C   0  0  0  0  0  0  0  0  0  0  0  0
    1.2059   -0.3443    0.1717 C   0  0  0  0  0  0  0  0  0  0  0  0
   -0.8339    1.1313   -1.5846 C   0  0  0  0  0  0  0  0  0  0  0  0
   -2.2598    1.5647    0.3959 C   0  0  0  0  0  0  0  0  0  0  0  0
    0.9293   -1.4187   -0.5906 C   0  0  0  0  0  0  0  0  0  0  0  0
   -2.4929   -1.2257   -0.0639 H   0  0  0  0  0  0  0  0  0  0  0  0
    0.3274    1.1560    1.4941 H   0  0  0  0  0  0  0  0  0  0  0  0
   -0.4280   -1.6119    1.9286 H   0  0  0  0  0  0  0  0  0  0  0  0
   -1.6282   -0.3600    2.2001 H   0  0  0  0  0  0  0  0  0  0  0  0
   -0.7628   -1.8466   -1.8460 H   0  0  0  0  0  0  0  0  0  0  0  0
   -0.6196   -2.8933   -0.4244 H   0  0  0  0  0  0  0  0  0  0  0  0
   -0.4656    2.1629   -1.5524 H   0  0  0  0  0  0  0  0  0  0  0  0
   -0.0725    0.5372   -2.0942 H   0  0  0  0  0  0  0  0  0  0  0  0
   -1.7276    1.1124   -2.2185 H   0  0  0  0  0  0  0  0  0  0  0  0
   -3.1534    1.5359   -0.2377 H   0  0  0  0  0  0  0  0  0  0  0  0
   -2.5766    1.3043    1.4084 H   0  0  0  0  0  0  0  0  0  0  0  0
   -1.9017    2.5999    0.4285 H   0  0  0  0  0  0  0  0  0  0  0  0
    1.7195   -1.9688   -1.0900 H   0  0  0  0  0  0  0  0  0  0  0  0
    2.4856    1.9228    0.7443 H   0  0  0  0  0  0  0  0  0  0  0  0
  1  2  1  0  0  0  0
  1  8  1  0  0  0  0
  2 25  1  0  0  0  0
  3  4  1  0  0  0  0
  3  5  1  0  0  0  0
  3  9  1  0  0  0  0
  3 10  1  0  0  0  0
  4  6  1  0  0  0  0
  4  7  1  0  0  0  0
  4 12  1  0  0  0  0
  5  6  1  0  0  0  0
  5  8  1  0  0  0  0
  5 13  1  0  0  0  0
  6 14  1  0  0  0  0
  6 15  1  0  0  0  0
  7 11  1  0  0  0  0
  7 16  1  0  0  0  0
  7 17  1  0  0  0  0
  8 11  2  0  0  0  0
  9 18  1  0  0  0  0
  9 19  1  0  0  0  0
  9 20  1  0  0  0  0
 10 21  1  0  0  0  0
 10 22  1  0  0  0  0
 10 23  1  0  0  0  0
 11 24  1  0  0  0  0
M  END
> <PUBCHEM_COMPOUND_CID>
102379124

> <PUBCHEM_CONFORMER_RMSD>
0.4

> <PUBCHEM_CONFORMER_DIVERSEORDER>
1
2
3

> <PUBCHEM_MMFF94_PARTIAL_CHARGES>
8
1 -0.08
11 -0.29
2 -0.4
24 0.15
25 0.4
5 0.12
7 0.14
8 -0.04

> <PUBCHEM_EFFECTIVE_ROTOR_COUNT>
1.6

> <PUBCHEM_PHARMACOPHORE_FEATURES>
2
3 3 9 10 hydrophobe
7 3 4 5 6 7 8 11 rings

> <PUBCHEM_HEAVY_ATOM_COUNT>
11

> <PUBCHEM_ATOM_DEF_STEREO_COUNT>
2

> <PUBCHEM_ATOM_UDEF_STEREO_COUNT>
0

> <PUBCHEM_BOND_DEF_STEREO_COUNT>
0

> <PUBCHEM_BOND_UDEF_STEREO_COUNT>
0

> <PUBCHEM_ISOTOPIC_ATOM_COUNT>
0

> <PUBCHEM_COMPONENT_COUNT>
1

> <PUBCHEM_CACTVS_TAUTO_COUNT>
1

> <PUBCHEM_CONFORMER_ID>
061A2E7400000001

> <PUBCHEM_MMFF94_ENERGY>
35.7564

> <PUBCHEM_FEATURE_SELFOVERLAP>
10.148

> <PUBCHEM_SHAPE_FINGERPRINT>
12423570 1 18194140696323618875
13024252 1 15936672865752875682
137420 1 15978959881262528395
14128692 85 17047109477217523006
15557651 10 17464837674393132223
16945 1 18199744919896206107
20653085 51 18412268311395775864
21040471 1 18201993296520606346
23211744 41 17969781865436297861
241688 4 16541872287826700178
2748010 2 18271252629165699702
29004967 10 17335904487208090843
369184 2 16950830522640524416
5084963 1 18116694271016906401
528886 8 17985817138567685715
68250623 7 18262791874569059171

> <PUBCHEM_SHAPE_MULTIPOLES>
214.64
2.65
1.81
1.24
0.76
0.19
0.09
-1.37
-0.23
0.07
0.37
-0.34
0.02
0.2

> <PUBCHEM_SHAPE_SELFOVERLAP>
445.512

> <PUBCHEM_SHAPE_VOLUME>
125.1

> <PUBCHEM_COORDINATE_TYPE>
2
5
10

$$$$
