101297608
  -OEChem-02172602543D

 87 93  0     1  0  0  0  0  0999 V2000
   -4.4070   -1.4591   -0.3567 O   0  0  0  0  0  0  0  0  0  0  0  0
    0.8420   -1.4957    0.6721 O   0  0  0  0  0  0  0  0  0  0  0  0
    2.9182    0.1529   -0.4118 O   0  0  0  0  0  0  0  0  0  0  0  0
    2.5217    2.8274    0.3499 O   0  0  0  0  0  0  0  0  0  0  0  0
   -2.3691   -2.7529    1.0100 O   0  0  0  0  0  0  0  0  0  0  0  0
   -1.3693   -3.3529   -0.9900 O   0  0  0  0  0  0  0  0  0  0  0  0
   -6.3321   -0.5603   -1.2645 O   0  0  0  0  0  0  0  0  0  0  0  0
    1.9097   -2.8096   -0.8996 O   0  0  0  0  0  0  0  0  0  0  0  0
    4.0288   -0.0364   -2.4193 O   0  0  0  0  0  0  0  0  0  0  0  0
    4.0909    4.3627   -0.3693 O   0  0  0  0  0  0  0  0  0  0  0  0
   -2.4045    2.0932    0.8365 N   0  0  1  0  0  0  0  0  0  0  0  0
   -1.9587    1.3201   -0.3744 C   0  0  2  0  0  0  0  0  0  0  0  0
   -3.0454    1.7446   -1.4666 C   0  0  1  0  0  0  0  0  0  0  0  0
   -3.8047   -0.1897   -0.3240 C   0  0  1  0  0  0  0  0  0  0  0  0
   -3.8748    2.1897    0.6576 C   0  0  2  0  0  0  0  0  0  0  0  0
   -4.4686    0.7486    0.7475 C   0  0  2  0  0  0  0  0  0  0  0  0
   -2.2867   -0.1584   -0.2339 C   0  0  0  0  0  0  0  0  0  0  0  0
   -3.8942    0.4834   -1.6950 C   0  0  0  0  0  0  0  0  0  0  0  0
   -0.5452    1.5791   -0.9569 C   0  0  2  0  0  0  0  0  0  0  0  0
   -3.9260    2.7518   -0.7455 C   0  0  0  0  0  0  0  0  0  0  0  0
    0.5397    0.6854   -0.3316 C   0  0  1  0  0  0  0  0  0  0  0  0
   -2.1605    1.6598    2.2315 C   0  0  1  0  0  0  0  0  0  0  0  0
   -4.2904    0.2354    2.1833 C   0  0  0  0  0  0  0  0  0  0  0  0
   -1.3385   -1.1122   -0.2179 C   0  0  0  0  0  0  0  0  0  0  0  0
   -2.8479    0.3499    2.6754 C   0  0  0  0  0  0  0  0  0  0  0  0
    0.1384   -0.8116   -0.3701 C   0  0  2  0  0  0  0  0  0  0  0  0
   -0.1444    3.0652   -0.9386 C   0  0  0  0  0  0  0  0  0  0  0  0
    1.8984    0.9299   -1.0340 C   0  0  1  0  0  0  0  0  0  0  0  0
    1.2158    3.2929   -1.6034 C   0  0  0  0  0  0  0  0  0  0  0  0
    2.3027    2.4092   -0.9982 C   0  0  1  0  0  0  0  0  0  0  0  0
   -0.7075    1.6645    2.6944 C   0  0  0  0  0  0  0  0  0  0  0  0
   -1.6800   -2.5410   -0.1374 C   0  0  0  0  0  0  0  0  0  0  0  0
   -5.6871   -1.5158   -0.8544 C   0  0  0  0  0  0  0  0  0  0  0  0
    1.6966   -2.4736    0.2574 C   0  0  0  0  0  0  0  0  0  0  0  0
   -6.1985   -2.9244   -0.8282 C   0  0  0  0  0  0  0  0  0  0  0  0
    3.9256   -0.2656   -1.2242 C   0  0  0  0  0  0  0  0  0  0  0  0
    3.4474    3.8161    0.5163 C   0  0  0  0  0  0  0  0  0  0  0  0
   -2.7760   -4.1069    1.2334 C   0  0  0  0  0  0  0  0  0  0  0  0
    2.3580   -3.0986    1.4482 C   0  0  0  0  0  0  0  0  0  0  0  0
    4.9183   -1.0615   -0.4590 C   0  0  0  0  0  0  0  0  0  0  0  0
    3.5716    4.1500    1.9721 C   0  0  0  0  0  0  0  0  0  0  0  0
    5.6403   -2.0725   -1.0930 C   0  0  0  0  0  0  0  0  0  0  0  0
    5.1299   -0.7968    0.8941 C   0  0  0  0  0  0  0  0  0  0  0  0
    6.5740   -2.8189   -0.3741 C   0  0  0  0  0  0  0  0  0  0  0  0
    6.0635   -1.5431    1.6131 C   0  0  0  0  0  0  0  0  0  0  0  0
    6.7856   -2.5542    0.9790 C   0  0  0  0  0  0  0  0  0  0  0  0
   -2.6505    2.1523   -2.4018 H   0  0  0  0  0  0  0  0  0  0  0  0
   -4.3450    2.8778    1.3694 H   0  0  0  0  0  0  0  0  0  0  0  0
   -5.5469    0.8180    0.5636 H   0  0  0  0  0  0  0  0  0  0  0  0
   -4.8784    0.7754   -2.0629 H   0  0  0  0  0  0  0  0  0  0  0  0
   -3.4536   -0.1494   -2.4790 H   0  0  0  0  0  0  0  0  0  0  0  0
   -0.5849    1.2928   -2.0208 H   0  0  0  0  0  0  0  0  0  0  0  0
   -3.4865    3.7563   -0.7887 H   0  0  0  0  0  0  0  0  0  0  0  0
   -4.9439    2.8124   -1.1434 H   0  0  0  0  0  0  0  0  0  0  0  0
    0.6995    0.9621    0.7088 H   0  0  0  0  0  0  0  0  0  0  0  0
   -2.6211    2.4528    2.8411 H   0  0  0  0  0  0  0  0  0  0  0  0
   -4.6378   -0.7997    2.2772 H   0  0  0  0  0  0  0  0  0  0  0  0
   -4.9279    0.8358    2.8456 H   0  0  0  0  0  0  0  0  0  0  0  0
   -2.8513    0.2963    3.7721 H   0  0  0  0  0  0  0  0  0  0  0  0
   -2.2706   -0.5195    2.3529 H   0  0  0  0  0  0  0  0  0  0  0  0
    0.4094   -1.1903   -1.3653 H   0  0  0  0  0  0  0  0  0  0  0  0
   -0.1060    3.4375    0.0911 H   0  0  0  0  0  0  0  0  0  0  0  0
   -0.8950    3.6676   -1.4630 H   0  0  0  0  0  0  0  0  0  0  0  0
    1.7785    0.6234   -2.0830 H   0  0  0  0  0  0  0  0  0  0  0  0
    1.1305    3.0814   -2.6764 H   0  0  0  0  0  0  0  0  0  0  0  0
    1.4791    4.3521   -1.5029 H   0  0  0  0  0  0  0  0  0  0  0  0
    3.2294    2.5188   -1.5755 H   0  0  0  0  0  0  0  0  0  0  0  0
   -0.2076    0.7196    2.4726 H   0  0  0  0  0  0  0  0  0  0  0  0
   -0.6650    1.7845    3.7839 H   0  0  0  0  0  0  0  0  0  0  0  0
   -0.1445    2.4977    2.2646 H   0  0  0  0  0  0  0  0  0  0  0  0
   -5.5622   -3.5594   -1.4497 H   0  0  0  0  0  0  0  0  0  0  0  0
   -7.2159   -2.9495   -1.2286 H   0  0  0  0  0  0  0  0  0  0  0  0
   -6.2185   -3.2902    0.2014 H   0  0  0  0  0  0  0  0  0  0  0  0
   -3.3483   -4.1397    2.1642 H   0  0  0  0  0  0  0  0  0  0  0  0
   -1.8981   -4.7518    1.3362 H   0  0  0  0  0  0  0  0  0  0  0  0
   -3.4162   -4.4518    0.4159 H   0  0  0  0  0  0  0  0  0  0  0  0
    2.7281   -2.3236    2.1241 H   0  0  0  0  0  0  0  0  0  0  0  0
    3.2101   -3.6987    1.1170 H   0  0  0  0  0  0  0  0  0  0  0  0
    1.6440   -3.7436    1.9659 H   0  0  0  0  0  0  0  0  0  0  0  0
    2.6084    4.4953    2.3561 H   0  0  0  0  0  0  0  0  0  0  0  0
    3.9143    3.2717    2.5249 H   0  0  0  0  0  0  0  0  0  0  0  0
    4.3051    4.9512    2.0995 H   0  0  0  0  0  0  0  0  0  0  0  0
    5.4845   -2.2932   -2.1457 H   0  0  0  0  0  0  0  0  0  0  0  0
    4.5897   -0.0077    1.4106 H   0  0  0  0  0  0  0  0  0  0  0  0
    7.1356   -3.6068   -0.8675 H   0  0  0  0  0  0  0  0  0  0  0  0
    6.2298   -1.3358    2.6661 H   0  0  0  0  0  0  0  0  0  0  0  0
    7.5125   -3.1353    1.5389 H   0  0  0  0  0  0  0  0  0  0  0  0
  1 14  1  0  0  0  0
  1 33  1  0  0  0  0
  2 26  1  0  0  0  0
  2 34  1  0  0  0  0
  3 28  1  0  0  0  0
  3 36  1  0  0  0  0
  4 30  1  0  0  0  0
  4 37  1  0  0  0  0
  5 32  1  0  0  0  0
  5 38  1  0  0  0  0
  6 32  2  0  0  0  0
  7 33  2  0  0  0  0
  8 34  2  0  0  0  0
  9 36  2  0  0  0  0
 10 37  2  0  0  0  0
 11 12  1  0  0  0  0
 11 15  1  0  0  0  0
 11 22  1  0  0  0  0
 12 13  1  0  0  0  0
 12 17  1  0  0  0  0
 12 19  1  0  0  0  0
 13 18  1  0  0  0  0
 13 20  1  0  0  0  0
 13 47  1  0  0  0  0
 14 16  1  0  0  0  0
 14 17  1  0  0  0  0
 14 18  1  0  0  0  0
 15 16  1  0  0  0  0
 15 20  1  0  0  0  0
 15 48  1  0  0  0  0
 16 23  1  0  0  0  0
 16 49  1  0  0  0  0
 17 24  2  0  0  0  0
 18 50  1  0  0  0  0
 18 51  1  0  0  0  0
 19 21  1  0  0  0  0
 19 27  1  0  0  0  0
 19 52  1  0  0  0  0
 20 53  1  0  0  0  0
 20 54  1  0  0  0  0
 21 26  1  0  0  0  0
 21 28  1  0  0  0  0
 21 55  1  0  0  0  0
 22 25  1  0  0  0  0
 22 31  1  0  0  0  0
 22 56  1  0  0  0  0
 23 25  1  0  0  0  0
 23 57  1  0  0  0  0
 23 58  1  0  0  0  0
 24 26  1  0  0  0  0
 24 32  1  0  0  0  0
 25 59  1  0  0  0  0
 25 60  1  0  0  0  0
 26 61  1  0  0  0  0
 27 29  1  0  0  0  0
 27 62  1  0  0  0  0
 27 63  1  0  0  0  0
 28 30  1  0  0  0  0
 28 64  1  0  0  0  0
 29 30  1  0  0  0  0
 29 65  1  0  0  0  0
 29 66  1  0  0  0  0
 30 67  1  0  0  0  0
 31 68  1  0  0  0  0
 31 69  1  0  0  0  0
 31 70  1  0  0  0  0
 33 35  1  0  0  0  0
 34 39  1  0  0  0  0
 35 71  1  0  0  0  0
 35 72  1  0  0  0  0
 35 73  1  0  0  0  0
 36 40  1  0  0  0  0
 37 41  1  0  0  0  0
 38 74  1  0  0  0  0
 38 75  1  0  0  0  0
 38 76  1  0  0  0  0
 39 77  1  0  0  0  0
 39 78  1  0  0  0  0
 39 79  1  0  0  0  0
 40 42  2  0  0  0  0
 40 43  1  0  0  0  0
 41 80  1  0  0  0  0
 41 81  1  0  0  0  0
 41 82  1  0  0  0  0
 42 44  1  0  0  0  0
 42 83  1  0  0  0  0
 43 45  2  0  0  0  0
 43 84  1  0  0  0  0
 44 46  2  0  0  0  0
 44 85  1  0  0  0  0
 45 46  1  0  0  0  0
 45 86  1  0  0  0  0
 46 87  1  0  0  0  0
M  END
> <PUBCHEM_COMPOUND_CID>
101297608

> <PUBCHEM_CONFORMER_RMSD>
1.2

> <PUBCHEM_CONFORMER_DIVERSEORDER>
1
4
3
2

> <PUBCHEM_MMFF94_PARTIAL_CHARGES>
40
1 -0.43
10 -0.57
11 -0.81
12 0.41
14 0.42
15 0.27
17 -0.28
2 -0.43
22 0.27
24 -0.12
26 0.42
28 0.28
3 -0.43
30 0.28
32 0.71
33 0.66
34 0.66
35 0.06
36 0.63
37 0.66
38 0.28
39 0.06
4 -0.43
40 0.09
41 0.06
42 -0.15
43 -0.15
44 -0.15
45 -0.15
46 -0.15
5 -0.43
6 -0.57
7 -0.57
8 -0.57
83 0.15
84 0.15
85 0.15
86 0.15
87 0.15
9 -0.57

> <PUBCHEM_EFFECTIVE_ROTOR_COUNT>
13

> <PUBCHEM_PHARMACOPHORE_FEATURES>
11
1 10 acceptor
1 11 cation
1 6 acceptor
1 7 acceptor
1 8 acceptor
1 9 acceptor
6 11 15 16 22 23 25 rings
6 12 17 19 21 24 26 rings
6 19 21 27 28 29 30 rings
6 40 42 43 44 45 46 rings
9 11 12 13 14 15 16 17 18 20 rings

> <PUBCHEM_HEAVY_ATOM_COUNT>
46

> <PUBCHEM_ATOM_DEF_STEREO_COUNT>
11

> <PUBCHEM_ATOM_UDEF_STEREO_COUNT>
0

> <PUBCHEM_BOND_DEF_STEREO_COUNT>
0

> <PUBCHEM_BOND_UDEF_STEREO_COUNT>
0

> <PUBCHEM_ISOTOPIC_ATOM_COUNT>
0

> <PUBCHEM_COMPONENT_COUNT>
1

> <PUBCHEM_CACTVS_TAUTO_COUNT>
8

> <PUBCHEM_CONFORMER_ID>
0609ADC800000001

> <PUBCHEM_MMFF94_ENERGY>
149.4613

> <PUBCHEM_FEATURE_SELFOVERLAP>
56.19

> <PUBCHEM_SHAPE_FINGERPRINT>
10290309 65 17399805294053313364
10439779 11 18337665330881523002
11007060 377 18335714857646510918
12107698 1 18343016709497059247
12166972 35 18413385432436951480
12422481 6 18265899043285152886
12608794 3 18269292169842770097
12633046 712 17023772089572474194
13140716 1 18337113466196078644
13782708 43 18260552224980074379
13811026 1 18335689521629234948
14068700 675 18342736308298724953
14394314 77 18192991526853847544
14705955 166 17414984770025097992
14955137 171 18337683997072615834
15001296 14 18263076772470940618
16112460 7 18341059557920873688
17349148 13 18271816704437346076
19315092 285 18272364295503730120
19841028 212 18339360889823607495
23559900 14 18262233434251839597
3383291 50 18409163307729269667
392239 28 17917716785804842321
460360 51 18261682566410771152
463206 1 18261960639847282018
563151 74 17130116898015438584
57527295 17 17241316963940988929
6086070 43 18339067190768325932
9961470 85 18265040517301862690

> <PUBCHEM_SHAPE_MULTIPOLES>
882.98
13.9
5.37
2.06
9.35
1.49
1.03
-8.94
-0.55
3.18
0.62
-0.47
0.74
-0.45

> <PUBCHEM_SHAPE_SELFOVERLAP>
1942.994

> <PUBCHEM_SHAPE_VOLUME>
472.8

> <PUBCHEM_COORDINATE_TYPE>
2
5
10

$$$$
