10115058
  -OEChem-02172602533D

 68 71  0     0  0  0  0  0  0999 V2000
   -4.5783    2.2113    1.3719 O   0  0  0  0  0  0  0  0  0  0  0  0
   -5.7092    2.1066   -0.6366 O   0  0  0  0  0  0  0  0  0  0  0  0
    5.4055   -0.4789    0.8403 O   0  0  0  0  0  0  0  0  0  0  0  0
    3.2559   -2.6402   -0.7781 O   0  0  0  0  0  0  0  0  0  0  0  0
   -1.0828   -0.2214    0.5803 N   0  0  0  0  0  0  0  0  0  0  0  0
    3.1418   -0.0969    0.3227 N   0  0  0  0  0  0  0  0  0  0  0  0
    2.3716    2.1380    0.3759 N   0  0  0  0  0  0  0  0  0  0  0  0
   -4.7437   -0.7817   -0.3264 C   0  0  0  0  0  0  0  0  0  0  0  0
   -4.8786   -2.2644    0.0468 C   0  0  0  0  0  0  0  0  0  0  0  0
   -5.5100   -0.7250   -1.6550 C   0  0  0  0  0  0  0  0  0  0  0  0
   -3.2789   -0.3764   -0.5031 C   0  0  0  0  0  0  0  0  0  0  0  0
   -6.2941   -2.6523   -0.3741 C   0  0  0  0  0  0  0  0  0  0  0  0
   -6.6992   -1.6644   -1.4678 C   0  0  0  0  0  0  0  0  0  0  0  0
   -5.3952    0.1221    0.7329 C   0  0  0  0  0  0  0  0  0  0  0  0
   -2.4732   -0.6359    0.7674 C   0  0  0  0  0  0  0  0  0  0  0  0
   -0.4576   -0.9940   -0.5021 C   0  0  0  0  0  0  0  0  0  0  0  0
   -0.3316   -0.3619    1.8353 C   0  0  0  0  0  0  0  0  0  0  0  0
    1.8152   -0.6211    0.5322 C   0  0  0  0  0  0  0  0  0  0  0  0
    0.9813   -0.5357   -0.7464 C   0  0  0  0  0  0  0  0  0  0  0  0
    1.1120    0.1168    1.6712 C   0  0  0  0  0  0  0  0  0  0  0  0
   -5.2682    1.5802    0.3759 C   0  0  0  0  0  0  0  0  0  0  0  0
    3.3008    1.3045   -0.0633 C   0  0  0  0  0  0  0  0  0  0  0  0
    4.3091   -0.9135    0.4827 C   0  0  0  0  0  0  0  0  0  0  0  0
   -4.3697    3.6147    1.1832 C   0  0  0  0  0  0  0  0  0  0  0  0
    4.3899    1.5725   -0.8288 C   0  0  0  0  0  0  0  0  0  0  0  0
    4.1589   -2.3373    0.1627 C   0  0  0  0  0  0  0  0  0  0  0  0
    4.5494    2.9028   -1.2008 C   0  0  0  0  0  0  0  0  0  0  0  0
    2.5597    3.4213   -0.0054 C   0  0  0  0  0  0  0  0  0  0  0  0
    4.7924   -3.4126    0.6689 C   0  0  0  0  0  0  0  0  0  0  0  0
    3.6212    3.8511   -0.7854 C   0  0  0  0  0  0  0  0  0  0  0  0
    4.2355   -4.5160   -0.0207 C   0  0  0  0  0  0  0  0  0  0  0  0
    3.3060   -3.9937   -0.8896 C   0  0  0  0  0  0  0  0  0  0  0  0
    3.7641    5.2815   -1.1667 C   0  0  0  0  0  0  0  0  0  0  0  0
   -4.7190   -2.4635    1.1117 H   0  0  0  0  0  0  0  0  0  0  0  0
   -4.1619   -2.8755   -0.5171 H   0  0  0  0  0  0  0  0  0  0  0  0
   -4.8853   -1.1284   -2.4638 H   0  0  0  0  0  0  0  0  0  0  0  0
   -5.8307    0.2613   -1.9891 H   0  0  0  0  0  0  0  0  0  0  0  0
   -3.1814    0.6691   -0.8200 H   0  0  0  0  0  0  0  0  0  0  0  0
   -2.8976   -0.9791   -1.3335 H   0  0  0  0  0  0  0  0  0  0  0  0
   -6.9832   -2.5723    0.4747 H   0  0  0  0  0  0  0  0  0  0  0  0
   -6.3328   -3.6876   -0.7279 H   0  0  0  0  0  0  0  0  0  0  0  0
   -6.9511   -2.1765   -2.4022 H   0  0  0  0  0  0  0  0  0  0  0  0
   -7.5870   -1.1034   -1.1541 H   0  0  0  0  0  0  0  0  0  0  0  0
   -6.4696   -0.0773    0.8315 H   0  0  0  0  0  0  0  0  0  0  0  0
   -4.9891   -0.0646    1.7331 H   0  0  0  0  0  0  0  0  0  0  0  0
   -2.8846   -0.0544    1.5973 H   0  0  0  0  0  0  0  0  0  0  0  0
   -2.5142   -1.6929    1.0556 H   0  0  0  0  0  0  0  0  0  0  0  0
   -0.9601   -0.8451   -1.4610 H   0  0  0  0  0  0  0  0  0  0  0  0
   -0.4722   -2.0693   -0.2813 H   0  0  0  0  0  0  0  0  0  0  0  0
   -0.3350   -1.4055    2.1772 H   0  0  0  0  0  0  0  0  0  0  0  0
   -0.8045    0.2360    2.6245 H   0  0  0  0  0  0  0  0  0  0  0  0
    1.8615   -1.6669    0.8538 H   0  0  0  0  0  0  0  0  0  0  0  0
    0.9511    0.4890   -1.1375 H   0  0  0  0  0  0  0  0  0  0  0  0
    1.4241   -1.1434   -1.5432 H   0  0  0  0  0  0  0  0  0  0  0  0
    1.6576   -0.0576    2.6078 H   0  0  0  0  0  0  0  0  0  0  0  0
    1.0137    1.1940    1.5855 H   0  0  0  0  0  0  0  0  0  0  0  0
   -3.8127    3.9941    2.0439 H   0  0  0  0  0  0  0  0  0  0  0  0
   -3.7804    3.7907    0.2782 H   0  0  0  0  0  0  0  0  0  0  0  0
   -5.3298    4.1365    1.1278 H   0  0  0  0  0  0  0  0  0  0  0  0
    5.0952    0.8405   -1.2003 H   0  0  0  0  0  0  0  0  0  0  0  0
    5.3930    3.1873   -1.8238 H   0  0  0  0  0  0  0  0  0  0  0  0
    1.8015    4.1133    0.3483 H   0  0  0  0  0  0  0  0  0  0  0  0
    5.5563   -3.4330    1.4327 H   0  0  0  0  0  0  0  0  0  0  0  0
    4.4805   -5.5612    0.1008 H   0  0  0  0  0  0  0  0  0  0  0  0
    2.6329   -4.4277   -1.6146 H   0  0  0  0  0  0  0  0  0  0  0  0
    3.3167    5.9386   -0.4130 H   0  0  0  0  0  0  0  0  0  0  0  0
    3.2729    5.4662   -2.1271 H   0  0  0  0  0  0  0  0  0  0  0  0
    4.8192    5.5627   -1.2520 H   0  0  0  0  0  0  0  0  0  0  0  0
  1 21  1  0  0  0  0
  1 24  1  0  0  0  0
  2 21  2  0  0  0  0
  3 23  2  0  0  0  0
  4 26  1  0  0  0  0
  4 32  1  0  0  0  0
  5 15  1  0  0  0  0
  5 16  1  0  0  0  0
  5 17  1  0  0  0  0
  6 18  1  0  0  0  0
  6 22  1  0  0  0  0
  6 23  1  0  0  0  0
  7 22  2  0  0  0  0
  7 28  1  0  0  0  0
  8  9  1  0  0  0  0
  8 10  1  0  0  0  0
  8 11  1  0  0  0  0
  8 14  1  0  0  0  0
  9 12  1  0  0  0  0
  9 34  1  0  0  0  0
  9 35  1  0  0  0  0
 10 13  1  0  0  0  0
 10 36  1  0  0  0  0
 10 37  1  0  0  0  0
 11 15  1  0  0  0  0
 11 38  1  0  0  0  0
 11 39  1  0  0  0  0
 12 13  1  0  0  0  0
 12 40  1  0  0  0  0
 12 41  1  0  0  0  0
 13 42  1  0  0  0  0
 13 43  1  0  0  0  0
 14 21  1  0  0  0  0
 14 44  1  0  0  0  0
 14 45  1  0  0  0  0
 15 46  1  0  0  0  0
 15 47  1  0  0  0  0
 16 19  1  0  0  0  0
 16 48  1  0  0  0  0
 16 49  1  0  0  0  0
 17 20  1  0  0  0  0
 17 50  1  0  0  0  0
 17 51  1  0  0  0  0
 18 19  1  0  0  0  0
 18 20  1  0  0  0  0
 18 52  1  0  0  0  0
 19 53  1  0  0  0  0
 19 54  1  0  0  0  0
 20 55  1  0  0  0  0
 20 56  1  0  0  0  0
 22 25  1  0  0  0  0
 23 26  1  0  0  0  0
 24 57  1  0  0  0  0
 24 58  1  0  0  0  0
 24 59  1  0  0  0  0
 25 27  2  0  0  0  0
 25 60  1  0  0  0  0
 26 29  2  0  0  0  0
 27 30  1  0  0  0  0
 27 61  1  0  0  0  0
 28 30  2  0  0  0  0
 28 62  1  0  0  0  0
 29 31  1  0  0  0  0
 29 63  1  0  0  0  0
 30 33  1  0  0  0  0
 31 32  2  0  0  0  0
 31 64  1  0  0  0  0
 32 65  1  0  0  0  0
 33 66  1  0  0  0  0
 33 67  1  0  0  0  0
 33 68  1  0  0  0  0
M  END
> <PUBCHEM_COMPOUND_CID>
10115058

> <PUBCHEM_CONFORMER_RMSD>
1.2

> <PUBCHEM_CONFORMER_DIVERSEORDER>
1
165
144
44
177
171
125
41
161
95
130
146
26
121
101
115
84
56
37
160
138
58
70
93
148
91
139
149
15
62
158
169
40
68
48
120
166
76
49
167
137
23
54
152
80
162
43
114
79
150
112
104
52
90
28
117
100
163
89
20
128
97
38
135
113
131
176
170
45
50
4
143
73
164
31
174
129
126
175
27
123
127
77
106
9
145
63
147
8
172
94
39
59
72
133
98
155
157
47
35
85
7
34
83
99
86
17
71
74
75
103
24
142
116
42
111
168
12
88
159
124
14
64
134
119
69
109
13
46
156
153
51
10
110
11
140
122
33
102
107
82
3
141
173
81
55
105
29
132
66
60
87
53
65
57
25
36
32
67
151
22
5
78
18
30
6
96
154
136
16
61
118
21
19
108
92
2

> <PUBCHEM_MMFF94_PARTIAL_CHARGES>
31
1 -0.43
14 0.06
15 0.27
16 0.27
17 0.27
18 0.3
2 -0.57
21 0.66
22 0.43
23 0.71
24 0.28
25 -0.15
26 0.05
27 -0.15
28 0.16
29 -0.15
3 -0.57
30 -0.14
31 -0.15
32 -0.01
33 0.14
4 -0.28
5 -0.81
6 -0.48
60 0.15
61 0.15
62 0.15
63 0.15
64 0.15
65 0.15
7 -0.62

> <PUBCHEM_EFFECTIVE_ROTOR_COUNT>
12.2

> <PUBCHEM_PHARMACOPHORE_FEATURES>
8
1 2 acceptor
1 3 acceptor
1 4 acceptor
1 5 cation
5 4 26 29 31 32 rings
5 8 9 10 12 13 rings
6 5 16 17 18 19 20 rings
6 7 22 25 27 28 30 rings

> <PUBCHEM_HEAVY_ATOM_COUNT>
33

> <PUBCHEM_ATOM_DEF_STEREO_COUNT>
0

> <PUBCHEM_ATOM_UDEF_STEREO_COUNT>
0

> <PUBCHEM_BOND_DEF_STEREO_COUNT>
0

> <PUBCHEM_BOND_UDEF_STEREO_COUNT>
0

> <PUBCHEM_ISOTOPIC_ATOM_COUNT>
0

> <PUBCHEM_COMPONENT_COUNT>
1

> <PUBCHEM_CACTVS_TAUTO_COUNT>
1

> <PUBCHEM_CONFORMER_ID>
009A57F200000001

> <PUBCHEM_MMFF94_ENERGY>
103.5367

> <PUBCHEM_FEATURE_SELFOVERLAP>
40.598

> <PUBCHEM_SHAPE_FINGERPRINT>
10462674 369 17489302023429362281
10595046 47 18412826919342930699
10673678 19 18120657087391811716
10721379 63 18339377305214453996
11136131 41 18335695075180646400
12107183 9 18124883352464655145
13590594 115 18046916974260025176
13785724 45 18125448505932049758
14347332 77 18202557389821707451
15021287 119 18265899064353398451
15082195 135 18411692210484901561
15183329 4 18408322189690761967
15250474 111 18272082842350158535
16989378 47 17487644982102538078
16993427 108 17461699733508709290
17844677 252 18411705383175829203
17899979 129 18262810695511687908
18365409 1 17843109566907083974
19311894 1 17903629679516010444
21033648 29 16226037916931022709
23559900 14 18271231726161302595
24771293 8 18340761547594328426
249057 3 18124598574895730345
255183 451 18199475377003906334
3004659 81 18131071498237420222
3103668 31 17396706389397908660
376196 1 17825390941003481816
4015057 19 18408325501480137835
4058900 60 18117290348828704068
4144715 1 18334305244916321571
44317340 157 18408605881609439625
46194498 28 18261382369371008838
497634 4 18335134324413575725
6057620 51 18052256490676711711
6695519 79 17765170748778930522

> <PUBCHEM_SHAPE_MULTIPOLES>
640.7
17.04
6.07
1.37
21.55
2.56
-0.11
-2.27
3.44
-9.72
1.42
0.7
0.3
-3.4

> <PUBCHEM_SHAPE_SELFOVERLAP>
1363.252

> <PUBCHEM_SHAPE_VOLUME>
357.9

> <PUBCHEM_COORDINATE_TYPE>
2
5
10

$$$$
