10091890
  -OEChem-02172602543D

 46 45  0     1  0  0  0  0  0999 V2000
    3.0858   -0.2425   -0.5463 P   0  0  1  0  0  0  0  0  0  0  0  0
    0.6603   -1.8223   -0.9391 P   0  0  1  0  0  0  0  0  0  0  0  0
   -1.1977   -2.0714    1.3300 P   0  0  0  0  0  0  0  0  0  0  0  0
    1.7146   -0.9452   -0.0868 O   0  0  0  0  0  0  0  0  0  0  0  0
    4.1154   -1.4669   -0.7243 O   0  0  0  0  0  0  0  0  0  0  0  0
    2.9897    0.6999   -1.6932 O   0  0  0  0  0  0  0  0  0  0  0  0
   -0.7306   -1.6108   -0.1459 O   0  0  0  0  0  0  0  0  0  0  0  0
    0.4581   -0.9542   -2.2876 O   0  0  0  0  0  0  0  0  0  0  0  0
    1.0485   -3.2545   -1.1592 O   0  0  0  0  0  0  0  0  0  0  0  0
   -2.6401   -1.3646    1.5071 O   0  0  0  0  0  0  0  0  0  0  0  0
   -0.2340   -1.2137    2.3036 O   0  0  0  0  0  0  0  0  0  0  0  0
   -1.1776   -3.5543    1.5552 O   0  0  0  0  0  0  0  0  0  0  0  0
    3.0747    1.9188    1.2210 C   0  0  0  0  0  0  0  0  0  0  0  0
    3.6577    0.5319    0.9845 C   0  0  0  0  0  0  0  0  0  0  0  0
   -0.7955    2.4061    0.7916 C   0  0  0  0  0  0  0  0  0  0  0  0
    0.6934    2.5682    0.5490 C   0  0  0  0  0  0  0  0  0  0  0  0
    1.5757    1.8813    1.3003 C   0  0  0  0  0  0  0  0  0  0  0  0
   -1.5612    1.8433   -0.4137 C   0  0  0  0  0  0  0  0  0  0  0  0
    1.0688    3.5259   -0.5480 C   0  0  0  0  0  0  0  0  0  0  0  0
   -3.0283    1.6624   -0.1319 C   0  0  0  0  0  0  0  0  0  0  0  0
   -3.8926    0.8212   -0.7308 C   0  0  0  0  0  0  0  0  0  0  0  0
   -5.3399    0.7949   -0.3160 C   0  0  0  0  0  0  0  0  0  0  0  0
   -3.5454   -0.1536   -1.8195 C   0  0  0  0  0  0  0  0  0  0  0  0
    3.4320    2.5825    0.4306 H   0  0  0  0  0  0  0  0  0  0  0  0
    3.4638    2.3156    2.1659 H   0  0  0  0  0  0  0  0  0  0  0  0
    3.4441   -0.1355    1.8273 H   0  0  0  0  0  0  0  0  0  0  0  0
    4.7480    0.6271    0.9214 H   0  0  0  0  0  0  0  0  0  0  0  0
   -0.9735    1.7548    1.6579 H   0  0  0  0  0  0  0  0  0  0  0  0
   -1.2075    3.3863    1.0668 H   0  0  0  0  0  0  0  0  0  0  0  0
    1.1862    1.2277    2.0793 H   0  0  0  0  0  0  0  0  0  0  0  0
   -1.1051    0.8975   -0.7168 H   0  0  0  0  0  0  0  0  0  0  0  0
   -1.4696    2.5379   -1.2573 H   0  0  0  0  0  0  0  0  0  0  0  0
    2.1101    3.8507   -0.5077 H   0  0  0  0  0  0  0  0  0  0  0  0
    0.4613    4.4350   -0.4785 H   0  0  0  0  0  0  0  0  0  0  0  0
    0.8946    3.0699   -1.5277 H   0  0  0  0  0  0  0  0  0  0  0  0
   -3.4290    2.3307    0.6298 H   0  0  0  0  0  0  0  0  0  0  0  0
    4.7018   -1.7253    0.0184 H   0  0  0  0  0  0  0  0  0  0  0  0
   -5.9826    1.0455   -1.1663 H   0  0  0  0  0  0  0  0  0  0  0  0
   -5.6119   -0.2030    0.0440 H   0  0  0  0  0  0  0  0  0  0  0  0
   -5.5586    1.5071    0.4865 H   0  0  0  0  0  0  0  0  0  0  0  0
   -3.6944   -1.1804   -1.4700 H   0  0  0  0  0  0  0  0  0  0  0  0
   -4.1852    0.0115   -2.6928 H   0  0  0  0  0  0  0  0  0  0  0  0
   -2.5100   -0.0622   -2.1574 H   0  0  0  0  0  0  0  0  0  0  0  0
    1.1490   -0.9891   -2.9830 H   0  0  0  0  0  0  0  0  0  0  0  0
   -3.1710   -1.5607    2.3082 H   0  0  0  0  0  0  0  0  0  0  0  0
   -0.2614   -1.3831    3.2693 H   0  0  0  0  0  0  0  0  0  0  0  0
  1  4  1  0  0  0  0
  1  5  1  0  0  0  0
  1  6  2  0  0  0  0
  1 14  1  0  0  0  0
  2  4  1  0  0  0  0
  2  7  1  0  0  0  0
  2  8  1  0  0  0  0
  2  9  2  0  0  0  0
  3  7  1  0  0  0  0
  3 10  1  0  0  0  0
  3 11  1  0  0  0  0
  3 12  2  0  0  0  0
  5 37  1  0  0  0  0
  8 44  1  0  0  0  0
 10 45  1  0  0  0  0
 11 46  1  0  0  0  0
 13 14  1  0  0  0  0
 13 17  1  0  0  0  0
 13 24  1  0  0  0  0
 13 25  1  0  0  0  0
 14 26  1  0  0  0  0
 14 27  1  0  0  0  0
 15 16  1  0  0  0  0
 15 18  1  0  0  0  0
 15 28  1  0  0  0  0
 15 29  1  0  0  0  0
 16 17  2  0  0  0  0
 16 19  1  0  0  0  0
 17 30  1  0  0  0  0
 18 20  1  0  0  0  0
 18 31  1  0  0  0  0
 18 32  1  0  0  0  0
 19 33  1  0  0  0  0
 19 34  1  0  0  0  0
 19 35  1  0  0  0  0
 20 21  2  0  0  0  0
 20 36  1  0  0  0  0
 21 22  1  0  0  0  0
 21 23  1  0  0  0  0
 22 38  1  0  0  0  0
 22 39  1  0  0  0  0
 22 40  1  0  0  0  0
 23 41  1  0  0  0  0
 23 42  1  0  0  0  0
 23 43  1  0  0  0  0
M  END
> <PUBCHEM_COMPOUND_CID>
10091890

> <PUBCHEM_CONFORMER_RMSD>
1.4

> <PUBCHEM_CONFORMER_DIVERSEORDER>
3
64
4
13
63
53
60
16
22
67
5
35
32
103
41
56
79
55
65
54
9
46
95
57
78
38
39
17
93
66
89
43
51
102
80
73
31
47
25
14
69
44
87
61
83
71
7
27
82
19
15
85
23
74
94
75
10
99
33
84
90
59
1
105
26
58
20
40
48
8
70
49
37
29
100
77
18
106
104
6
28
86
50
96
92
81
68
45
98
91
72
34
101
97
24
12
30
2
11
21
88
76
42
52
62
36

> <PUBCHEM_MMFF94_PARTIAL_CHARGES>
28
1 1.24
10 -0.77
11 -0.77
12 -0.7
13 0.14
15 0.14
16 -0.28
17 -0.29
18 0.14
19 0.14
2 1.51
20 -0.29
21 -0.28
22 0.14
23 0.14
3 1.51
30 0.15
36 0.15
37 0.5
4 -0.54
44 0.5
45 0.5
46 0.5
5 -0.77
6 -0.7
7 -0.54
8 -0.77
9 -0.7

> <PUBCHEM_EFFECTIVE_ROTOR_COUNT>
10

> <PUBCHEM_PHARMACOPHORE_FEATURES>
11
1 10 acceptor
1 11 acceptor
1 12 acceptor
1 19 hydrophobe
1 5 acceptor
1 6 acceptor
1 8 acceptor
1 9 acceptor
3 21 22 23 hydrophobe
4 15 16 18 20 hydrophobe
4 3 10 11 12 anion

> <PUBCHEM_HEAVY_ATOM_COUNT>
23

> <PUBCHEM_ATOM_DEF_STEREO_COUNT>
0

> <PUBCHEM_ATOM_UDEF_STEREO_COUNT>
0

> <PUBCHEM_BOND_DEF_STEREO_COUNT>
1

> <PUBCHEM_BOND_UDEF_STEREO_COUNT>
0

> <PUBCHEM_ISOTOPIC_ATOM_COUNT>
0

> <PUBCHEM_COMPONENT_COUNT>
1

> <PUBCHEM_CACTVS_TAUTO_COUNT>
1

> <PUBCHEM_CONFORMER_ID>
0099FD7200000003

> <PUBCHEM_MMFF94_ENERGY>
-39.9319

> <PUBCHEM_FEATURE_SELFOVERLAP>
55.887

> <PUBCHEM_SHAPE_FINGERPRINT>
108634 29 18337666524554909338
12467345 10 17131560427664813321
12596599 1 16917077667356915021
13402501 40 18411136926678676081
13544592 271 18412824702839242579
14178342 30 17840856392012988592
14251745 187 18342729719771719297
14251757 17 18409166653613340297
14251764 3 18410009961799207883
14251764 38 18193548094269387893
14787075 74 18336267847444250471
17357779 13 18130525062612015380
17492 54 18335433347904484396
20567600 347 18262225634817946913
20691752 17 18335688417380041469
20905425 154 17910106911199859348
23558518 356 17690857661202414692
2748010 2 18271252711292246272
3323516 105 18271520906019347469
35225 105 17462247482738405583

> <PUBCHEM_SHAPE_MULTIPOLES>
432.05
7.11
4.04
1.88
4.51
0.58
0.08
-1.73
-1.48
-0.67
0.72
-0.03
1.01
1.49

> <PUBCHEM_SHAPE_SELFOVERLAP>
788.074

> <PUBCHEM_SHAPE_VOLUME>
275.5

> <PUBCHEM_COORDINATE_TYPE>
2
5
10

$$$$
