10141656
  -OEChem-02172602543D

 67 71  0     1  0  0  0  0  0999 V2000
    5.1420    0.0646    0.0090 O   0  0  0  0  0  0  0  0  0  0  0  0
    3.2675    1.5761   -1.3209 O   0  0  0  0  0  0  0  0  0  0  0  0
   -2.5943    3.5387   -0.1289 O   0  0  0  0  0  0  0  0  0  0  0  0
   -9.9967   -2.4885   -1.4342 O   0  0  0  0  0  0  0  0  0  0  0  0
   -7.9097   -2.6445   -2.3140 O   0  0  0  0  0  0  0  0  0  0  0  0
   -3.0275    1.3983    0.4663 N   0  0  0  0  0  0  0  0  0  0  0  0
    6.8838   -1.5943   -1.5237 N   0  0  1  0  0  0  0  0  0  0  0  0
   -4.9396    0.2878    0.8756 C   0  0  0  0  0  0  0  0  0  0  0  0
   -4.3973    1.3995    0.2814 C   0  0  0  0  0  0  0  0  0  0  0  0
   -3.8811   -0.4407    1.4669 C   0  0  0  0  0  0  0  0  0  0  0  0
   -6.3717   -0.0794    0.8971 C   0  0  0  0  0  0  0  0  0  0  0  0
   -2.6948    0.2607    1.2098 C   0  0  0  0  0  0  0  0  0  0  0  0
    5.0636    0.0040   -1.4214 C   0  0  1  0  0  0  0  0  0  0  0  0
    5.4987   -1.3720   -1.9170 C   0  0  0  0  0  0  0  0  0  0  0  0
   -6.7840   -0.9607   -0.2999 C   0  0  0  0  0  0  0  0  0  0  0  0
    3.6210    0.2959   -1.8139 C   0  0  0  0  0  0  0  0  0  0  0  0
    7.2335   -1.1770   -0.2430 C   0  0  0  0  0  0  0  0  0  0  0  0
    6.3557   -0.3605    0.4997 C   0  0  0  0  0  0  0  0  0  0  0  0
   -3.8326   -1.6425    2.2041 C   0  0  0  0  0  0  0  0  0  0  0  0
   -5.1282    2.4574   -0.4563 C   0  0  0  0  0  0  0  0  0  0  0  0
   -2.1493    2.4035    0.0063 C   0  0  0  0  0  0  0  0  0  0  0  0
   -1.4572   -0.2285    1.6708 C   0  0  0  0  0  0  0  0  0  0  0  0
   -8.2617   -1.3528   -0.2786 C   0  0  0  0  0  0  0  0  0  0  0  0
    7.6867   -2.5420   -2.2761 C   0  0  0  0  0  0  0  0  0  0  0  0
   -0.7314    2.1863   -0.3403 C   0  0  0  0  0  0  0  0  0  0  0  0
   -2.6046   -2.1209    2.6648 C   0  0  0  0  0  0  0  0  0  0  0  0
   -1.4338   -1.4220    2.3997 C   0  0  0  0  0  0  0  0  0  0  0  0
    8.4478   -1.5284    0.3712 C   0  0  0  0  0  0  0  0  0  0  0  0
    6.6555    0.0465    1.8042 C   0  0  0  0  0  0  0  0  0  0  0  0
    1.9488    1.7762   -0.9966 C   0  0  0  0  0  0  0  0  0  0  0  0
   -0.3904    1.2864   -1.3501 C   0  0  0  0  0  0  0  0  0  0  0  0
    0.2678    2.8812    0.3412 C   0  0  0  0  0  0  0  0  0  0  0  0
    8.7584   -1.1103    1.6698 C   0  0  0  0  0  0  0  0  0  0  0  0
    7.8607   -0.3278    2.3876 C   0  0  0  0  0  0  0  0  0  0  0  0
    0.9496    1.0813   -1.6782 C   0  0  0  0  0  0  0  0  0  0  0  0
    1.6079    2.6762    0.0131 C   0  0  0  0  0  0  0  0  0  0  0  0
   -8.6631   -2.2276   -1.4454 C   0  0  0  0  0  0  0  0  0  0  0  0
   -6.9998    0.8193    0.9223 H   0  0  0  0  0  0  0  0  0  0  0  0
   -6.6008   -0.6164    1.8265 H   0  0  0  0  0  0  0  0  0  0  0  0
    5.7099    0.7963   -1.8249 H   0  0  0  0  0  0  0  0  0  0  0  0
    4.8738   -2.1614   -1.4801 H   0  0  0  0  0  0  0  0  0  0  0  0
    5.3963   -1.4238   -3.0071 H   0  0  0  0  0  0  0  0  0  0  0  0
   -6.5625   -0.4340   -1.2375 H   0  0  0  0  0  0  0  0  0  0  0  0
   -6.1683   -1.8698   -0.3124 H   0  0  0  0  0  0  0  0  0  0  0  0
    2.9887   -0.4852   -1.3703 H   0  0  0  0  0  0  0  0  0  0  0  0
    3.5123    0.2825   -2.9044 H   0  0  0  0  0  0  0  0  0  0  0  0
   -4.7396   -2.2022    2.4161 H   0  0  0  0  0  0  0  0  0  0  0  0
   -6.1473    2.1534   -0.7136 H   0  0  0  0  0  0  0  0  0  0  0  0
   -4.6335    2.6945   -1.4041 H   0  0  0  0  0  0  0  0  0  0  0  0
   -5.2006    3.3687    0.1459 H   0  0  0  0  0  0  0  0  0  0  0  0
   -0.5263    0.2975    1.5008 H   0  0  0  0  0  0  0  0  0  0  0  0
   -8.8772   -0.4466   -0.3077 H   0  0  0  0  0  0  0  0  0  0  0  0
   -8.4830   -1.9009    0.6439 H   0  0  0  0  0  0  0  0  0  0  0  0
    8.7070   -2.1699   -2.4174 H   0  0  0  0  0  0  0  0  0  0  0  0
    7.7222   -3.5120   -1.7685 H   0  0  0  0  0  0  0  0  0  0  0  0
    7.2700   -2.7069   -3.2757 H   0  0  0  0  0  0  0  0  0  0  0  0
   -2.5662   -3.0461    3.2330 H   0  0  0  0  0  0  0  0  0  0  0  0
   -0.4847   -1.8047    2.7664 H   0  0  0  0  0  0  0  0  0  0  0  0
    9.1788   -2.1468   -0.1441 H   0  0  0  0  0  0  0  0  0  0  0  0
    5.9564    0.6625    2.3636 H   0  0  0  0  0  0  0  0  0  0  0  0
   -1.1603    0.7455   -1.8942 H   0  0  0  0  0  0  0  0  0  0  0  0
    0.0144    3.5831    1.1314 H   0  0  0  0  0  0  0  0  0  0  0  0
    9.7029   -1.4031    2.1198 H   0  0  0  0  0  0  0  0  0  0  0  0
    8.1008   -0.0087    3.3972 H   0  0  0  0  0  0  0  0  0  0  0  0
    1.1709    0.3937   -2.4890 H   0  0  0  0  0  0  0  0  0  0  0  0
    2.3822    3.2195    0.5477 H   0  0  0  0  0  0  0  0  0  0  0  0
  -10.2660   -3.0474   -2.1941 H   0  0  0  0  0  0  0  0  0  0  0  0
  1 13  1  0  0  0  0
  1 18  1  0  0  0  0
  2 16  1  0  0  0  0
  2 30  1  0  0  0  0
  3 21  2  0  0  0  0
  4 37  1  0  0  0  0
  4 67  1  0  0  0  0
  5 37  2  0  0  0  0
  6  9  1  0  0  0  0
  6 12  1  0  0  0  0
  6 21  1  0  0  0  0
  7 14  1  0  0  0  0
  7 17  1  0  0  0  0
  7 24  1  0  0  0  0
  8  9  2  0  0  0  0
  8 10  1  0  0  0  0
  8 11  1  0  0  0  0
  9 20  1  0  0  0  0
 10 12  1  0  0  0  0
 10 19  2  0  0  0  0
 11 15  1  0  0  0  0
 11 38  1  0  0  0  0
 11 39  1  0  0  0  0
 12 22  2  0  0  0  0
 13 14  1  0  0  0  0
 13 16  1  0  0  0  0
 13 40  1  0  0  0  0
 14 41  1  0  0  0  0
 14 42  1  0  0  0  0
 15 23  1  0  0  0  0
 15 43  1  0  0  0  0
 15 44  1  0  0  0  0
 16 45  1  0  0  0  0
 16 46  1  0  0  0  0
 17 18  1  0  0  0  0
 17 28  2  0  0  0  0
 18 29  2  0  0  0  0
 19 26  1  0  0  0  0
 19 47  1  0  0  0  0
 20 48  1  0  0  0  0
 20 49  1  0  0  0  0
 20 50  1  0  0  0  0
 21 25  1  0  0  0  0
 22 27  1  0  0  0  0
 22 51  1  0  0  0  0
 23 37  1  0  0  0  0
 23 52  1  0  0  0  0
 23 53  1  0  0  0  0
 24 54  1  0  0  0  0
 24 55  1  0  0  0  0
 24 56  1  0  0  0  0
 25 31  2  0  0  0  0
 25 32  1  0  0  0  0
 26 27  2  0  0  0  0
 26 57  1  0  0  0  0
 27 58  1  0  0  0  0
 28 33  1  0  0  0  0
 28 59  1  0  0  0  0
 29 34  1  0  0  0  0
 29 60  1  0  0  0  0
 30 35  2  0  0  0  0
 30 36  1  0  0  0  0
 31 35  1  0  0  0  0
 31 61  1  0  0  0  0
 32 36  2  0  0  0  0
 32 62  1  0  0  0  0
 33 34  2  0  0  0  0
 33 63  1  0  0  0  0
 34 64  1  0  0  0  0
 35 65  1  0  0  0  0
 36 66  1  0  0  0  0
M  END
> <PUBCHEM_COMPOUND_CID>
10141656

> <PUBCHEM_CONFORMER_RMSD>
1.2

> <PUBCHEM_CONFORMER_DIVERSEORDER>
1
97
61
100
104
47
56
34
76
66
79
102
51
77
84
142
62
17
93
121
40
139
114
13
74
127
10
125
24
71
58
122
41
54
141
150
49
99
23
89
91
28
18
148
101
118
63
151
43
132
128
52
60
57
50
25
68
92
81
73
145
36
111
67
35
117
147
30
45
116
94
113
80
140
82
31
83
85
107
9
27
106
32
65
20
108
96
152
44
29
98
90
55
21
78
64
124
33
87
72
129
123
146
95
88
75
12
120
130
3
38
143
59
136
131
11
15
46
149
39
110
134
26
48
126
70
112
19
109
2
69
14
86
37
8
133
5
22
103
135
53
144
115
16
138
42
105
4
6
7
137
119

> <PUBCHEM_MMFF94_PARTIAL_CHARGES>
48
1 -0.36
11 0.18
12 -0.15
13 0.28
14 0.37
16 0.28
17 0.1
18 0.08
19 -0.15
2 -0.36
20 0.18
21 0.49
22 -0.15
23 0.06
24 0.37
25 0.09
26 -0.15
27 -0.15
28 -0.15
29 -0.15
3 -0.57
30 0.08
31 -0.15
32 -0.15
33 -0.15
34 -0.15
35 -0.15
36 -0.15
37 0.66
4 -0.65
47 0.15
5 -0.57
51 0.15
57 0.15
58 0.15
59 0.15
6 0.29
60 0.15
61 0.15
62 0.15
63 0.15
64 0.15
65 0.15
66 0.15
67 0.5
7 -0.84
8 -0.18
9 -0.33

> <PUBCHEM_EFFECTIVE_ROTOR_COUNT>
9.8

> <PUBCHEM_PHARMACOPHORE_FEATURES>
12
1 1 acceptor
1 2 acceptor
1 3 acceptor
1 4 acceptor
1 5 acceptor
1 7 cation
3 4 5 37 anion
5 6 8 9 10 12 rings
6 1 7 13 14 17 18 rings
6 10 12 19 22 26 27 rings
6 17 18 28 29 33 34 rings
6 25 30 31 32 35 36 rings

> <PUBCHEM_HEAVY_ATOM_COUNT>
37

> <PUBCHEM_ATOM_DEF_STEREO_COUNT>
1

> <PUBCHEM_ATOM_UDEF_STEREO_COUNT>
0

> <PUBCHEM_BOND_DEF_STEREO_COUNT>
0

> <PUBCHEM_BOND_UDEF_STEREO_COUNT>
0

> <PUBCHEM_ISOTOPIC_ATOM_COUNT>
0

> <PUBCHEM_COMPONENT_COUNT>
1

> <PUBCHEM_CACTVS_TAUTO_COUNT>
1

> <PUBCHEM_CONFORMER_ID>
009ABFD800000001

> <PUBCHEM_MMFF94_ENERGY>
116.6036

> <PUBCHEM_FEATURE_SELFOVERLAP>
61.084

> <PUBCHEM_SHAPE_FINGERPRINT>
10369192 42 8142078741452753945
10674148 151 13262393384459967830
12202916 173 18409451392702378915
12838863 1 18335697252053864219
13811026 1 18335142002839199945
14068700 675 17749394733280721620
14931854 50 17894349986667284011
15183329 4 17167872950017355736
15188451 53 18187086131563379100
15274700 259 16153970393119195335
15320295 40 18412822486773371965
15347590 135 15051738590412620471
15350500 16 18410006658985265975
15392192 104 17632577184938029996
15510800 12 18336564749674852358
18393751 57 13830136078754363541
18603816 31 18261388975199690439
19304671 126 11674887714921699302
19958102 18 17530968007747353221
2026 5 18412548682777576935
23522609 53 16591153710009521588
23559900 14 17970081125952436741
3004659 81 17749406849346007844
32027 91 18115036327857914401
3383291 50 18408890633029304715
3986486 107 11818997366488966786
42767 39 18412545388115440271
4353968 344 18187638086474259229
474113 269 18335696152747666199
5085150 59 18260269607827159834
57035037 87 16056320493392297217
5718773 13 18343024419585594277
6201320 221 16371552701905139290
6697151 62 18260832652059287349
9689198 14 11674878896662418821

> <PUBCHEM_SHAPE_MULTIPOLES>
722.13
29.83
3.3
2.55
8.18
1.47
-0.16
-28.1
-8.38
-3.77
-0.49
1.32
-2.04
-1.31

> <PUBCHEM_SHAPE_SELFOVERLAP>
1576.365

> <PUBCHEM_SHAPE_VOLUME>
392.6

> <PUBCHEM_COORDINATE_TYPE>
2
5
10

$$$$
