10183151
  -OEChem-02172602543D

 55 58  0     0  0  0  0  0  0999 V2000
   -6.3663   -1.5672   -3.1559 Cl  0  0  0  0  0  0  0  0  0  0  0  0
   -8.5226   -3.0238   -1.2319 Cl  0  0  0  0  0  0  0  0  0  0  0  0
    7.5471    1.5932   -2.7973 S   0  0  0  0  0  0  0  0  0  0  0  0
   -4.0436    1.7004    0.3615 N   0  0  0  0  0  0  0  0  0  0  0  0
    0.1989    1.5365    0.5562 N   0  0  0  0  0  0  0  0  0  0  0  0
    2.9443   -0.8289    1.3381 N   0  0  0  0  0  0  0  0  0  0  0  0
    4.9904   -0.4145    0.2676 N   0  0  0  0  0  0  0  0  0  0  0  0
    4.7366   -2.2794    1.7727 N   0  0  0  0  0  0  0  0  0  0  0  0
   -1.1889    1.6387    1.0018 C   0  0  0  0  0  0  0  0  0  0  0  0
   -1.9654    0.3791    0.6098 C   0  0  0  0  0  0  0  0  0  0  0  0
   -1.8661    2.8764    0.4061 C   0  0  0  0  0  0  0  0  0  0  0  0
   -3.4452    0.5093    0.9802 C   0  0  0  0  0  0  0  0  0  0  0  0
   -3.3492    2.9250    0.7827 C   0  0  0  0  0  0  0  0  0  0  0  0
   -5.4680    1.7834    0.6833 C   0  0  0  0  0  0  0  0  0  0  0  0
    0.8503    0.3805    1.1542 C   0  0  0  0  0  0  0  0  0  0  0  0
   -6.2260    0.5803    0.1884 C   0  0  0  0  0  0  0  0  0  0  0  0
    2.3069    0.3065    0.7148 C   0  0  0  0  0  0  0  0  0  0  0  0
   -5.9906    0.1041   -1.0937 C   0  0  0  0  0  0  0  0  0  0  0  0
   -7.1489   -0.0357    1.0219 C   0  0  0  0  0  0  0  0  0  0  0  0
   -6.6923   -1.0111   -1.5517 C   0  0  0  0  0  0  0  0  0  0  0  0
   -7.8508   -1.1506    0.5638 C   0  0  0  0  0  0  0  0  0  0  0  0
   -7.6224   -1.6384   -0.7229 C   0  0  0  0  0  0  0  0  0  0  0  0
    4.2655   -1.1855    1.1194 C   0  0  0  0  0  0  0  0  0  0  0  0
    6.2723   -0.7900    0.0778 C   0  0  0  0  0  0  0  0  0  0  0  0
    6.0264   -2.5977    1.5365 C   0  0  0  0  0  0  0  0  0  0  0  0
    6.8500   -1.8828    0.6913 C   0  0  0  0  0  0  0  0  0  0  0  0
    7.0359    0.0263   -0.8215 C   0  0  0  0  0  0  0  0  0  0  0  0
    8.4414    0.2722   -0.7836 C   0  0  0  0  0  0  0  0  0  0  0  0
    6.4289    0.6868   -1.8698 C   0  0  0  0  0  0  0  0  0  0  0  0
    8.8513    1.1068   -1.8000 C   0  0  0  0  0  0  0  0  0  0  0  0
   -1.2076    1.7423    2.0958 H   0  0  0  0  0  0  0  0  0  0  0  0
   -1.8737    0.1877   -0.4679 H   0  0  0  0  0  0  0  0  0  0  0  0
   -1.5990   -0.5095    1.1341 H   0  0  0  0  0  0  0  0  0  0  0  0
   -1.3707    3.7877    0.7631 H   0  0  0  0  0  0  0  0  0  0  0  0
   -1.7708    2.8705   -0.6883 H   0  0  0  0  0  0  0  0  0  0  0  0
   -3.9273   -0.4171    0.6512 H   0  0  0  0  0  0  0  0  0  0  0  0
   -3.5447    0.5499    2.0736 H   0  0  0  0  0  0  0  0  0  0  0  0
   -3.4488    3.0798    1.8652 H   0  0  0  0  0  0  0  0  0  0  0  0
   -3.7974    3.7948    0.2870 H   0  0  0  0  0  0  0  0  0  0  0  0
    0.7022    2.3867    0.8083 H   0  0  0  0  0  0  0  0  0  0  0  0
   -5.6093    1.9059    1.7656 H   0  0  0  0  0  0  0  0  0  0  0  0
   -5.9114    2.6653    0.2023 H   0  0  0  0  0  0  0  0  0  0  0  0
    0.7985    0.4294    2.2493 H   0  0  0  0  0  0  0  0  0  0  0  0
    0.3895   -0.5598    0.8363 H   0  0  0  0  0  0  0  0  0  0  0  0
    2.3611    0.2137   -0.3771 H   0  0  0  0  0  0  0  0  0  0  0  0
    2.8311    1.2265    1.0021 H   0  0  0  0  0  0  0  0  0  0  0  0
   -5.2771    0.5994   -1.7479 H   0  0  0  0  0  0  0  0  0  0  0  0
   -7.3362    0.3350    2.0256 H   0  0  0  0  0  0  0  0  0  0  0  0
    2.4161   -1.4114    1.9779 H   0  0  0  0  0  0  0  0  0  0  0  0
   -8.5721   -1.6272    1.2231 H   0  0  0  0  0  0  0  0  0  0  0  0
    6.3908   -3.4740    2.0618 H   0  0  0  0  0  0  0  0  0  0  0  0
    7.8761   -2.1899    0.5327 H   0  0  0  0  0  0  0  0  0  0  0  0
    9.1290   -0.1304   -0.0502 H   0  0  0  0  0  0  0  0  0  0  0  0
    5.3851    0.6888   -2.1546 H   0  0  0  0  0  0  0  0  0  0  0  0
    9.8540    1.4554   -2.0035 H   0  0  0  0  0  0  0  0  0  0  0  0
  1 20  1  0  0  0  0
  2 22  1  0  0  0  0
  3 29  1  0  0  0  0
  3 30  1  0  0  0  0
  4 12  1  0  0  0  0
  4 13  1  0  0  0  0
  4 14  1  0  0  0  0
  5  9  1  0  0  0  0
  5 15  1  0  0  0  0
  5 40  1  0  0  0  0
  6 17  1  0  0  0  0
  6 23  1  0  0  0  0
  6 49  1  0  0  0  0
  7 23  1  0  0  0  0
  7 24  2  0  0  0  0
  8 23  2  0  0  0  0
  8 25  1  0  0  0  0
  9 10  1  0  0  0  0
  9 11  1  0  0  0  0
  9 31  1  0  0  0  0
 10 12  1  0  0  0  0
 10 32  1  0  0  0  0
 10 33  1  0  0  0  0
 11 13  1  0  0  0  0
 11 34  1  0  0  0  0
 11 35  1  0  0  0  0
 12 36  1  0  0  0  0
 12 37  1  0  0  0  0
 13 38  1  0  0  0  0
 13 39  1  0  0  0  0
 14 16  1  0  0  0  0
 14 41  1  0  0  0  0
 14 42  1  0  0  0  0
 15 17  1  0  0  0  0
 15 43  1  0  0  0  0
 15 44  1  0  0  0  0
 16 18  2  0  0  0  0
 16 19  1  0  0  0  0
 17 45  1  0  0  0  0
 17 46  1  0  0  0  0
 18 20  1  0  0  0  0
 18 47  1  0  0  0  0
 19 21  2  0  0  0  0
 19 48  1  0  0  0  0
 20 22  2  0  0  0  0
 21 22  1  0  0  0  0
 21 50  1  0  0  0  0
 24 26  1  0  0  0  0
 24 27  1  0  0  0  0
 25 26  2  0  0  0  0
 25 51  1  0  0  0  0
 26 52  1  0  0  0  0
 27 28  1  0  0  0  0
 27 29  2  0  0  0  0
 28 30  2  0  0  0  0
 28 53  1  0  0  0  0
 29 54  1  0  0  0  0
 30 55  1  0  0  0  0
M  END
> <PUBCHEM_COMPOUND_CID>
10183151

> <PUBCHEM_CONFORMER_RMSD>
1.2

> <PUBCHEM_CONFORMER_DIVERSEORDER>
1
109
291
161
303
158
150
211
151
115
302
267
279
88
169
214
105
269
174
305
270
36
304
313
289
153
209
242
33
63
160
11
259
309
178
27
80
241
126
312
49
250
12
219
218
206
266
89
311
189
220
69
179
25
154
306
276
286
182
247
288
106
205
181
117
130
50
141
4
116
68
137
149
167
225
32
86
229
163
265
99
44
118
107
183
264
228
97
9
268
177
148
8
31
54
39
299
112
146
233
284
254
136
64
56
103
20
257
216
152
48
244
3
90
102
128
227
75
297
283
162
147
277
234
188
92
110
14
101
246
113
22
200
37
84
301
245
195
65
111
256
95
317
194
186
172
282
296
2
185
159
226
249
45
197
144
212
281
79
83
295
57
29
193
273
314
315
6
13
7
43
60
85
300
293
119
292
294
199
123
157
81
133
221
263
251
15
231
202
274
210
272
114
237
66
19
98
5
121
125
129
156
17
55
132
127
42
180
173
143
184
77
131
138
287
275
170
53
82
30
204
222
40
166
18
253
34
120
298
260
16
100
290
196
41
203
261
230
51
108
238
224
307
135
70
207
191
308
28
285
62
164
145
239
155
310
76
215
236
140
280
208
91
271
96
124
252
21
248
213
190
175
255
94
104
74
78
47
58
35
52
192
240
73
316
232
142
187
67
59
71
223
243
165
122
217
235
171
61
10
278
134
87
258
198
72
139
201
38
23
46
168
176
262
26
93
24

> <PUBCHEM_MMFF94_PARTIAL_CHARGES>
38
1 -0.18
12 0.27
13 0.27
14 0.41
15 0.27
16 -0.14
17 0.37
18 -0.15
19 -0.15
2 -0.18
20 0.18
21 -0.15
22 0.18
23 0.72
24 0.36
25 0.16
26 -0.15
27 -0.05
28 -0.15
29 -0.11
3 -0.08
30 -0.11
4 -0.81
40 0.36
47 0.15
48 0.15
49 0.4
5 -0.9
50 0.15
51 0.15
52 0.15
53 0.15
54 0.15
55 0.15
6 -0.87
7 -0.62
8 -0.62
9 0.27

> <PUBCHEM_EFFECTIVE_ROTOR_COUNT>
9.2

> <PUBCHEM_PHARMACOPHORE_FEATURES>
10
1 4 cation
1 5 cation
1 5 donor
1 6 donor
1 7 acceptor
4 6 7 8 23 cation
5 3 27 28 29 30 rings
6 16 18 19 20 21 22 rings
6 4 9 10 11 12 13 rings
6 7 8 23 24 25 26 rings

> <PUBCHEM_HEAVY_ATOM_COUNT>
30

> <PUBCHEM_ATOM_DEF_STEREO_COUNT>
0

> <PUBCHEM_ATOM_UDEF_STEREO_COUNT>
0

> <PUBCHEM_BOND_DEF_STEREO_COUNT>
0

> <PUBCHEM_BOND_UDEF_STEREO_COUNT>
0

> <PUBCHEM_ISOTOPIC_ATOM_COUNT>
0

> <PUBCHEM_COMPONENT_COUNT>
1

> <PUBCHEM_CACTVS_TAUTO_COUNT>
3

> <PUBCHEM_CONFORMER_ID>
009B61EF00000001

> <PUBCHEM_MMFF94_ENERGY>
59.3678

> <PUBCHEM_FEATURE_SELFOVERLAP>
50.747

> <PUBCHEM_SHAPE_FINGERPRINT>
10162869 55 18040151813180621250
10280341 67 12974147589787503863
10533779 1 17387710525590790284
10533779 47 13901919924398235031
10595046 47 18187933807688900016
10835480 77 17313396634300774808
11456790 92 9511458931234886966
11475781 23 12324240516513525907
11476731 38 18114473317795673249
11621639 307 12685905110808588847
11761917 116 18341609360673557151
11761917 87 14117529727058159860
11828042 74 18340190927272461149
12082328 90 17749109964031816053
12144603 126 18335428920273405921
13627175 4 17917142914451545071
13782708 43 17917415511187178553
14344974 204 16557888174219786287
14347424 109 10735867358345084554
14429380 56 17385446531847082828
14444916 359 16128660738483494260
14598715 104 14706924055486168828
15350500 185 15357697509040271288
15352257 5 16630809893817359484
15684393 108 18186516601361637103
1577012 14 18261398793189097352
16989713 51 18060411414133705493
16992752 21 18343305860218851777
1818759 1 17775290486449950055
195137 95 13118278191999291708
20105231 36 16200435758423402116
21150785 3 18260833695851890848
21585481 151 16487255495337177775
21591340 7 9223225222579021545
21781051 124 17203612597121746198
21867018 265 17821726187313037079
23081809 10 18335705975459419168
23389318 12 18260266365026318902
23522609 53 18194706786241857040
23729417 116 18412260636912898925
25269216 80 17203340979443620224
2747138 104 16415477134350316512
306946 40 14996279258050695678
393628 179 13767921347547579503
397638 5 11819268983919640764
397830 11 16844423055880003739
4073 2 13109803139968030360
4330586 98 18041002868643856259
445580 167 18113340803713086576
44802255 64 15647050483049846995
44880568 143 16878217554918914037
45377200 153 17418378025526698302
504579 68 18334861627896330636
54039377 194 18340770434066188551
54076057 127 16701730666395614448
5470011 282 17894346666335992655
57634706 306 16515974765446891656
6058803 2 17829889837320066144
636775 72 12973602236061633167
636775 8 17989212555033694861
70634741 139 17313396664159850467
9980921 7 16878801525260011188
999808 66 15554448491975599429

> <PUBCHEM_SHAPE_MULTIPOLES>
600.07
34.4
2.91
2.28
13.02
0
1.8
15.01
17.29
-3.14
-0.39
2.08
0.67
-7.44

> <PUBCHEM_SHAPE_SELFOVERLAP>
1247.045

> <PUBCHEM_SHAPE_VOLUME>
344.4

> <PUBCHEM_COORDINATE_TYPE>
2
5
10

$$$$
