1549091
  -OEChem-02172602213D

 28 28  0     0  0  0  0  0  0999 V2000
    2.7596    1.8029    0.1354 O   0  0  0  0  0  0  0  0  0  0  0  0
    0.9706   -2.5879   -0.5419 O   0  0  0  0  0  0  0  0  0  0  0  0
    3.1024   -0.9454    0.1133 O   0  0  0  0  0  0  0  0  0  0  0  0
   -4.2595   -0.4572    0.7390 O   0  0  0  0  0  0  0  0  0  0  0  0
   -2.1299   -0.0479    1.4472 O   0  0  0  0  0  0  0  0  0  0  0  0
   -0.5898    0.7048   -0.8317 C   0  0  0  0  0  0  0  0  0  0  0  0
    1.7215    0.9809   -0.1853 C   0  0  0  0  0  0  0  0  0  0  0  0
    0.8189   -1.2341   -0.5263 C   0  0  0  0  0  0  0  0  0  0  0  0
    1.8903   -0.4037   -0.1971 C   0  0  0  0  0  0  0  0  0  0  0  0
    0.4814    1.5352   -0.5025 C   0  0  0  0  0  0  0  0  0  0  0  0
   -0.4212   -0.6798   -0.8436 C   0  0  0  0  0  0  0  0  0  0  0  0
   -1.8830    1.2827   -1.1624 C   0  0  0  0  0  0  0  0  0  0  0  0
   -3.0362    1.0487   -0.4977 C   0  0  0  0  0  0  0  0  0  0  0  0
    2.9160    2.1424    1.5116 C   0  0  0  0  0  0  0  0  0  0  0  0
    0.7068   -3.2836    0.6747 C   0  0  0  0  0  0  0  0  0  0  0  0
   -3.0480    0.1418    0.6675 C   0  0  0  0  0  0  0  0  0  0  0  0
    0.3581    2.6161   -0.4909 H   0  0  0  0  0  0  0  0  0  0  0  0
   -1.2429   -1.3404   -1.1128 H   0  0  0  0  0  0  0  0  0  0  0  0
   -1.8967    1.9669   -2.0070 H   0  0  0  0  0  0  0  0  0  0  0  0
   -3.9681    1.4963   -0.8238 H   0  0  0  0  0  0  0  0  0  0  0  0
    3.7338   -0.2229    0.2727 H   0  0  0  0  0  0  0  0  0  0  0  0
    3.0487    1.2435    2.1218 H   0  0  0  0  0  0  0  0  0  0  0  0
    2.0495    2.7105    1.8649 H   0  0  0  0  0  0  0  0  0  0  0  0
    3.8078    2.7672    1.6111 H   0  0  0  0  0  0  0  0  0  0  0  0
   -0.3340   -3.1382    0.9814 H   0  0  0  0  0  0  0  0  0  0  0  0
    1.3824   -2.9454    1.4667 H   0  0  0  0  0  0  0  0  0  0  0  0
    0.8751   -4.3503    0.5031 H   0  0  0  0  0  0  0  0  0  0  0  0
   -4.3201   -1.0734    1.5000 H   0  0  0  0  0  0  0  0  0  0  0  0
  1  7  1  0  0  0  0
  1 14  1  0  0  0  0
  2  8  1  0  0  0  0
  2 15  1  0  0  0  0
  3  9  1  0  0  0  0
  3 21  1  0  0  0  0
  4 16  1  0  0  0  0
  4 28  1  0  0  0  0
  5 16  2  0  0  0  0
  6 10  2  0  0  0  0
  6 11  1  0  0  0  0
  6 12  1  0  0  0  0
  7  9  2  0  0  0  0
  7 10  1  0  0  0  0
  8  9  1  0  0  0  0
  8 11  2  0  0  0  0
 10 17  1  0  0  0  0
 11 18  1  0  0  0  0
 12 13  2  0  0  0  0
 12 19  1  0  0  0  0
 13 16  1  0  0  0  0
 13 20  1  0  0  0  0
 14 22  1  0  0  0  0
 14 23  1  0  0  0  0
 14 24  1  0  0  0  0
 15 25  1  0  0  0  0
 15 26  1  0  0  0  0
 15 27  1  0  0  0  0
M  END
> <PUBCHEM_COMPOUND_CID>
1549091

> <PUBCHEM_CONFORMER_RMSD>
0.6

> <PUBCHEM_CONFORMER_DIVERSEORDER>
1
11
4
13
6
12
5
2
10
14
9
8
3
7

> <PUBCHEM_MMFF94_PARTIAL_CHARGES>
22
1 -0.36
10 -0.15
11 -0.15
12 -0.18
13 -0.14
14 0.28
15 0.28
16 0.71
17 0.15
18 0.15
19 0.15
2 -0.36
20 0.15
21 0.45
28 0.5
3 -0.53
4 -0.65
5 -0.57
6 0.03
7 0.08
8 0.08
9 0.08

> <PUBCHEM_EFFECTIVE_ROTOR_COUNT>
4

> <PUBCHEM_PHARMACOPHORE_FEATURES>
7
1 1 acceptor
1 2 acceptor
1 3 donor
1 4 acceptor
1 5 acceptor
3 4 5 16 anion
6 6 7 8 9 10 11 rings

> <PUBCHEM_HEAVY_ATOM_COUNT>
16

> <PUBCHEM_ATOM_DEF_STEREO_COUNT>
0

> <PUBCHEM_ATOM_UDEF_STEREO_COUNT>
0

> <PUBCHEM_BOND_DEF_STEREO_COUNT>
1

> <PUBCHEM_BOND_UDEF_STEREO_COUNT>
0

> <PUBCHEM_ISOTOPIC_ATOM_COUNT>
0

> <PUBCHEM_COMPONENT_COUNT>
1

> <PUBCHEM_CACTVS_TAUTO_COUNT>
2

> <PUBCHEM_CONFORMER_ID>
0017A32300000001

> <PUBCHEM_MMFF94_ENERGY>
67.1939

> <PUBCHEM_FEATURE_SELFOVERLAP>
35.578

> <PUBCHEM_SHAPE_FINGERPRINT>
108231 29 18194125110077530418
11471102 22 18338520737757622397
13140716 1 18339912788350961226
14617773 55 17772163543772893862
14787075 74 17270317940275308793
15207287 21 17822286955074113473
15219456 202 18334293145856577725
15309172 13 18337950202760444908
15490181 7 18339910563389045326
15502708 68 18411139142818380323
15775835 57 18060139894231712437
16945 1 18200870665289481116
17357990 137 16702030737778752025
17841504 4 18122624942453623455
18186145 218 17917992814853178996
18380122 1 18259702289865650733
19049666 15 17900255308653418109
20201158 50 18116154376817234087
20510252 161 17190083355523835112
20645477 70 18270950242473124069
21061003 4 18196093239980001342
21524375 3 18129092484696715564
21731228 192 18268418200169432504
2334 1 18267291213609496926
23419403 2 16527730498625380764
23559900 14 17822570486802160292
2748010 2 18334845113552184804
31174 14 18268156366157423983
33824 294 18408325493101218591
495365 180 18267844130609504973
568465 68 18409733924145547122
81228 2 17689982853821096670

> <PUBCHEM_SHAPE_MULTIPOLES>
299.93
5.27
2.78
1.19
3.27
2.14
0.28
-1.72
1.89
-2.19
0.46
0.24
-0.26
0.99

> <PUBCHEM_SHAPE_SELFOVERLAP>
626.232

> <PUBCHEM_SHAPE_VOLUME>
171.5

> <PUBCHEM_COORDINATE_TYPE>
2
5
10

$$$$
