10091387
  -OEChem-02172602543D

 52 54  0     0  0  0  0  0  0999 V2000
   -2.9687   -0.4323   -0.1275 S   0  0  0  0  0  0  0  0  0  0  0  0
    3.6689   -0.5784    1.6315 O   0  0  0  0  0  0  0  0  0  0  0  0
   -4.4059   -3.9701    0.5585 O   0  0  0  0  0  0  0  0  0  0  0  0
   -5.1424   -2.4014   -0.9599 O   0  0  0  0  0  0  0  0  0  0  0  0
   -0.0485    3.9013   -0.5201 N   0  0  0  0  0  0  0  0  0  0  0  0
   -1.3923    4.1017    0.0093 C   0  0  0  0  0  0  0  0  0  0  0  0
   -1.9847    2.8279    0.5662 C   0  0  0  0  0  0  0  0  0  0  0  0
   -1.3720    1.6316    0.5890 C   0  0  0  0  0  0  0  0  0  0  0  0
   -0.0064    1.5250    0.0298 C   0  0  0  0  0  0  0  0  0  0  0  0
    0.6021    2.6777   -0.5060 C   0  0  0  0  0  0  0  0  0  0  0  0
   -1.3103    5.1544    1.1228 C   0  0  0  0  0  0  0  0  0  0  0  0
   -2.2787    4.6183   -1.1320 C   0  0  0  0  0  0  0  0  0  0  0  0
    0.7024    0.3110    0.0164 C   0  0  0  0  0  0  0  0  0  0  0  0
   -2.0504    0.4239    1.1670 C   0  0  0  0  0  0  0  0  0  0  0  0
    1.8991    2.5841   -1.0391 C   0  0  0  0  0  0  0  0  0  0  0  0
    1.9899    0.2371   -0.5170 C   0  0  0  0  0  0  0  0  0  0  0  0
    2.5888    1.3736   -1.0449 C   0  0  0  0  0  0  0  0  0  0  0  0
    2.7004   -1.0236   -0.5227 C   0  0  0  0  0  0  0  0  0  0  0  0
    3.5160   -1.3924    0.5484 C   0  0  0  0  0  0  0  0  0  0  0  0
    2.5647   -1.8772   -1.6189 C   0  0  0  0  0  0  0  0  0  0  0  0
   -3.6422   -1.7874    0.8640 C   0  0  0  0  0  0  0  0  0  0  0  0
    4.1942   -2.6110    0.5232 C   0  0  0  0  0  0  0  0  0  0  0  0
    3.2427   -3.0958   -1.6440 C   0  0  0  0  0  0  0  0  0  0  0  0
    4.0575   -3.4627   -0.5729 C   0  0  0  0  0  0  0  0  0  0  0  0
   -4.4899   -2.7119    0.0269 C   0  0  0  0  0  0  0  0  0  0  0  0
    4.5229   -1.0429    2.6744 C   0  0  0  0  0  0  0  0  0  0  0  0
   -5.1571   -4.9803   -0.1228 C   0  0  0  0  0  0  0  0  0  0  0  0
   -2.9905    2.9084    0.9767 H   0  0  0  0  0  0  0  0  0  0  0  0
    0.4363    4.6983   -0.9179 H   0  0  0  0  0  0  0  0  0  0  0  0
   -0.8903    6.0956    0.7483 H   0  0  0  0  0  0  0  0  0  0  0  0
   -2.2987    5.3744    1.5428 H   0  0  0  0  0  0  0  0  0  0  0  0
   -0.6653    4.8170    1.9434 H   0  0  0  0  0  0  0  0  0  0  0  0
   -1.8790    5.5479   -1.5546 H   0  0  0  0  0  0  0  0  0  0  0  0
   -2.3380    3.8908   -1.9507 H   0  0  0  0  0  0  0  0  0  0  0  0
   -3.3001    4.8202   -0.7890 H   0  0  0  0  0  0  0  0  0  0  0  0
    0.2638   -0.6016    0.4112 H   0  0  0  0  0  0  0  0  0  0  0  0
   -2.7728    0.7405    1.9299 H   0  0  0  0  0  0  0  0  0  0  0  0
   -1.3592   -0.2475    1.6838 H   0  0  0  0  0  0  0  0  0  0  0  0
    2.3828    3.4649   -1.4566 H   0  0  0  0  0  0  0  0  0  0  0  0
    3.5909    1.3373   -1.4652 H   0  0  0  0  0  0  0  0  0  0  0  0
    1.9340   -1.6078   -2.4630 H   0  0  0  0  0  0  0  0  0  0  0  0
   -2.8008   -2.3481    1.2833 H   0  0  0  0  0  0  0  0  0  0  0  0
   -4.2624   -1.3941    1.6747 H   0  0  0  0  0  0  0  0  0  0  0  0
    4.8443   -2.9657    1.3153 H   0  0  0  0  0  0  0  0  0  0  0  0
    3.1364   -3.7591   -2.4974 H   0  0  0  0  0  0  0  0  0  0  0  0
    4.5850   -4.4119   -0.5938 H   0  0  0  0  0  0  0  0  0  0  0  0
    5.5579   -1.1508    2.3325 H   0  0  0  0  0  0  0  0  0  0  0  0
    4.1363   -1.9572    3.1376 H   0  0  0  0  0  0  0  0  0  0  0  0
    4.5268   -0.2726    3.4529 H   0  0  0  0  0  0  0  0  0  0  0  0
   -4.8028   -5.0854   -1.1526 H   0  0  0  0  0  0  0  0  0  0  0  0
   -6.2236   -4.7369   -0.1031 H   0  0  0  0  0  0  0  0  0  0  0  0
   -5.0037   -5.9283    0.3996 H   0  0  0  0  0  0  0  0  0  0  0  0
  1 14  1  0  0  0  0
  1 21  1  0  0  0  0
  2 19  1  0  0  0  0
  2 26  1  0  0  0  0
  3 25  1  0  0  0  0
  3 27  1  0  0  0  0
  4 25  2  0  0  0  0
  5  6  1  0  0  0  0
  5 10  1  0  0  0  0
  5 29  1  0  0  0  0
  6  7  1  0  0  0  0
  6 11  1  0  0  0  0
  6 12  1  0  0  0  0
  7  8  2  0  0  0  0
  7 28  1  0  0  0  0
  8  9  1  0  0  0  0
  8 14  1  0  0  0  0
  9 10  2  0  0  0  0
  9 13  1  0  0  0  0
 10 15  1  0  0  0  0
 11 30  1  0  0  0  0
 11 31  1  0  0  0  0
 11 32  1  0  0  0  0
 12 33  1  0  0  0  0
 12 34  1  0  0  0  0
 12 35  1  0  0  0  0
 13 16  2  0  0  0  0
 13 36  1  0  0  0  0
 14 37  1  0  0  0  0
 14 38  1  0  0  0  0
 15 17  2  0  0  0  0
 15 39  1  0  0  0  0
 16 17  1  0  0  0  0
 16 18  1  0  0  0  0
 17 40  1  0  0  0  0
 18 19  1  0  0  0  0
 18 20  2  0  0  0  0
 19 22  2  0  0  0  0
 20 23  1  0  0  0  0
 20 41  1  0  0  0  0
 21 25  1  0  0  0  0
 21 42  1  0  0  0  0
 21 43  1  0  0  0  0
 22 24  1  0  0  0  0
 22 44  1  0  0  0  0
 23 24  2  0  0  0  0
 23 45  1  0  0  0  0
 24 46  1  0  0  0  0
 26 47  1  0  0  0  0
 26 48  1  0  0  0  0
 26 49  1  0  0  0  0
 27 50  1  0  0  0  0
 27 51  1  0  0  0  0
 27 52  1  0  0  0  0
M  END
> <PUBCHEM_COMPOUND_CID>
10091387

> <PUBCHEM_CONFORMER_RMSD>
0.8

> <PUBCHEM_CONFORMER_DIVERSEORDER>
15
130
131
79
108
135
33
90
85
71
143
31
169
121
103
142
107
84
113
145
126
111
75
88
94
50
133
34
41
161
28
141
61
49
151
24
67
162
159
82
22
157
165
46
80
119
98
65
140
129
35
63
83
20
144
81
78
147
99
29
87
12
163
38
110
100
1
168
118
164
64
97
21
57
137
76
69
60
156
115
2
158
152
146
112
48
91
106
155
3
138
153
4
45
59
42
73
148
47
66
56
175
167
43
89
127
14
40
17
44
54
125
55
86
7
18
166
11
139
16
37
170
174
154
95
26
77
150
172
68
105
27
132
120
70
104
23
122
136
10
171
109
117
173
62
32
8
93
114
160
9
123
149
19
96
25
5
72
134
53
92
51
102
6
13
128
124
36
116
74
58
101
30
39
52

> <PUBCHEM_MMFF94_PARTIAL_CHARGES>
32
1 -0.46
10 0.1
13 -0.15
14 0.37
15 -0.15
17 -0.15
19 0.08
2 -0.36
20 -0.15
21 0.29
22 -0.15
23 -0.15
24 -0.15
25 0.66
26 0.28
27 0.28
28 0.15
29 0.4
3 -0.43
36 0.15
39 0.15
4 -0.57
40 0.15
41 0.15
44 0.15
45 0.15
46 0.15
5 -0.87
6 0.51
7 -0.29
8 -0.17
9 0.03

> <PUBCHEM_EFFECTIVE_ROTOR_COUNT>
7.4

> <PUBCHEM_PHARMACOPHORE_FEATURES>
8
1 2 acceptor
1 4 acceptor
1 5 cation
1 5 donor
3 6 11 12 hydrophobe
6 18 19 20 22 23 24 rings
6 5 6 7 8 9 10 rings
6 9 10 13 15 16 17 rings

> <PUBCHEM_HEAVY_ATOM_COUNT>
27

> <PUBCHEM_ATOM_DEF_STEREO_COUNT>
0

> <PUBCHEM_ATOM_UDEF_STEREO_COUNT>
0

> <PUBCHEM_BOND_DEF_STEREO_COUNT>
0

> <PUBCHEM_BOND_UDEF_STEREO_COUNT>
0

> <PUBCHEM_ISOTOPIC_ATOM_COUNT>
0

> <PUBCHEM_COMPONENT_COUNT>
1

> <PUBCHEM_CACTVS_TAUTO_COUNT>
1

> <PUBCHEM_CONFORMER_ID>
0099FB7B0000000F

> <PUBCHEM_MMFF94_ENERGY>
94.7358

> <PUBCHEM_FEATURE_SELFOVERLAP>
40.62

> <PUBCHEM_SHAPE_FINGERPRINT>
10940486 97 17974309633282285884
11014199 57 18411146822246727695
11103572 155 17476638050982994687
11227688 84 17831340350728597446
11552529 35 18196372520539738352
11607047 191 16192266666445403969
12107183 9 18198085697786104115
12788726 201 18261969461050497921
13083527 12 18262788675050421680
13583140 156 17200769152657321544
13690498 29 18049476701579670830
13911987 19 17539152926728727452
14289585 56 14094188640808609716
14444916 359 16972260764369965302
14675020 138 17264125555254557809
14863182 85 17978517751601955356
15250474 111 17481428596936865607
15484559 13 17475813416210979981
16728300 4 17611142282526846648
19026451 147 18263922322624917210
19319366 153 17192072372274649455
19427546 62 16610547333938536001
20028762 73 17909558259968682225
20775530 9 18189348999085682599
21033648 29 17621592814199778088
21133410 52 17695330870332711190
21133410 58 18268133431603121047
21133410 62 16106397088374727991
21452121 199 18336543923104127752
22033318 11 17766044689652501907
22849339 104 17836108683254604542
23559900 14 17690016544145778388
283562 15 18122650463461708692
3383291 50 18121780522319898185
4017518 198 17400076370634820607
5265222 85 16896548394140363534
5309563 4 18195816377882575695
613672 6 18340192068716077959

> <PUBCHEM_SHAPE_MULTIPOLES>
536.91
9.78
7.94
1.55
3.05
1.92
-0.58
13.49
-1.34
-13.78
0.98
1.89
0.02
0.26

> <PUBCHEM_SHAPE_SELFOVERLAP>
1132.287

> <PUBCHEM_SHAPE_VOLUME>
305.7

> <PUBCHEM_COORDINATE_TYPE>
2
5
10

$$$$
