56676058
  -OEChem-02172602283D

 58 60  0     1  0  0  0  0  0999 V2000
    2.9373    0.5375   -2.2791 O   0  0  0  0  0  0  0  0  0  0  0  0
   -0.9133   -0.3161   -0.1801 O   0  0  0  0  0  0  0  0  0  0  0  0
    0.7516    1.1987    1.8621 O   0  0  0  0  0  0  0  0  0  0  0  0
   -1.6698   -2.0676   -1.4682 O   0  0  0  0  0  0  0  0  0  0  0  0
   -6.9898    0.9888    0.3084 O   0  0  0  0  0  0  0  0  0  0  0  0
    2.8402    0.2068   -0.8811 C   0  0  2  0  0  0  0  0  0  0  0  0
    1.3811    0.4958   -0.3909 C   0  0  2  0  0  0  0  0  0  0  0  0
    3.7012    1.2443   -0.1065 C   0  0  1  0  0  0  0  0  0  0  0  0
    3.0748    1.3630    1.2802 C   0  0  0  0  0  0  0  0  0  0  0  0
    3.3005   -1.2606   -0.7911 C   0  0  0  0  0  0  0  0  0  0  0  0
    1.6288    1.0350    1.0209 C   0  0  0  0  0  0  0  0  0  0  0  0
    0.4434   -0.7429   -0.3861 C   0  0  1  0  0  0  0  0  0  0  0  0
    5.2009    0.9752   -0.0457 C   0  0  0  0  0  0  0  0  0  0  0  0
    0.7391    1.6647   -1.1797 C   0  0  0  0  0  0  0  0  0  0  0  0
    3.2317   -1.9607    0.5607 C   0  0  0  0  0  0  0  0  0  0  0  0
    0.6953   -1.8027    0.6543 C   0  0  0  0  0  0  0  0  0  0  0  0
    1.8655   -2.2939    1.0969 C   0  0  0  0  0  0  0  0  0  0  0  0
    5.8465    1.7702    1.0884 C   0  0  0  0  0  0  0  0  0  0  0  0
    5.8646    1.3129   -1.3802 C   0  0  0  0  0  0  0  0  0  0  0  0
    1.8784   -3.3029    2.2184 C   0  0  0  0  0  0  0  0  0  0  0  0
   -1.8605   -1.0756   -0.7820 C   0  0  0  0  0  0  0  0  0  0  0  0
   -3.2118   -0.5322   -0.4938 C   0  0  0  0  0  0  0  0  0  0  0  0
   -4.3422   -1.1606   -1.0164 C   0  0  0  0  0  0  0  0  0  0  0  0
   -3.3511    0.6073    0.2986 C   0  0  0  0  0  0  0  0  0  0  0  0
   -5.6117   -0.6495   -0.7469 C   0  0  0  0  0  0  0  0  0  0  0  0
   -4.6205    1.1185    0.5682 C   0  0  0  0  0  0  0  0  0  0  0  0
   -5.7508    0.4901    0.0454 C   0  0  0  0  0  0  0  0  0  0  0  0
   -7.0594    2.1566    1.1254 C   0  0  0  0  0  0  0  0  0  0  0  0
    3.5700    2.2227   -0.5941 H   0  0  0  0  0  0  0  0  0  0  0  0
    3.1557    2.3783    1.6788 H   0  0  0  0  0  0  0  0  0  0  0  0
    3.4580    0.6382    2.0018 H   0  0  0  0  0  0  0  0  0  0  0  0
    4.3289   -1.3461   -1.1659 H   0  0  0  0  0  0  0  0  0  0  0  0
    2.7334   -1.8550   -1.5227 H   0  0  0  0  0  0  0  0  0  0  0  0
    0.5137   -1.2044   -1.3800 H   0  0  0  0  0  0  0  0  0  0  0  0
    5.4114   -0.0742    0.1802 H   0  0  0  0  0  0  0  0  0  0  0  0
    0.4760    1.3551   -2.1971 H   0  0  0  0  0  0  0  0  0  0  0  0
    1.4048    2.5317   -1.2504 H   0  0  0  0  0  0  0  0  0  0  0  0
   -0.1753    2.0246   -0.6937 H   0  0  0  0  0  0  0  0  0  0  0  0
    3.7957   -1.4089    1.3176 H   0  0  0  0  0  0  0  0  0  0  0  0
    3.7682   -2.9119    0.4350 H   0  0  0  0  0  0  0  0  0  0  0  0
    3.6960    0.0769   -2.6708 H   0  0  0  0  0  0  0  0  0  0  0  0
   -0.2020   -2.1995    1.1307 H   0  0  0  0  0  0  0  0  0  0  0  0
    5.6136    2.8381    1.0129 H   0  0  0  0  0  0  0  0  0  0  0  0
    6.9377    1.6712    1.0518 H   0  0  0  0  0  0  0  0  0  0  0  0
    5.5417    1.4139    2.0768 H   0  0  0  0  0  0  0  0  0  0  0  0
    5.6235    2.3300   -1.7069 H   0  0  0  0  0  0  0  0  0  0  0  0
    5.5754    0.6165   -2.1693 H   0  0  0  0  0  0  0  0  0  0  0  0
    6.9551    1.2456   -1.2945 H   0  0  0  0  0  0  0  0  0  0  0  0
    2.4843   -2.9315    3.0516 H   0  0  0  0  0  0  0  0  0  0  0  0
    0.8765   -3.5125    2.6078 H   0  0  0  0  0  0  0  0  0  0  0  0
    2.3043   -4.2506    1.8729 H   0  0  0  0  0  0  0  0  0  0  0  0
   -4.2551   -2.0491   -1.6360 H   0  0  0  0  0  0  0  0  0  0  0  0
   -2.4989    1.1283    0.7261 H   0  0  0  0  0  0  0  0  0  0  0  0
   -6.4886   -1.1431   -1.1568 H   0  0  0  0  0  0  0  0  0  0  0  0
   -4.6570    2.0062    1.1905 H   0  0  0  0  0  0  0  0  0  0  0  0
   -8.1183    2.4142    1.2314 H   0  0  0  0  0  0  0  0  0  0  0  0
   -6.5687    3.0115    0.6479 H   0  0  0  0  0  0  0  0  0  0  0  0
   -6.6744    1.9663    2.1329 H   0  0  0  0  0  0  0  0  0  0  0  0
  1  6  1  0  0  0  0
  1 41  1  0  0  0  0
  2 12  1  0  0  0  0
  2 21  1  0  0  0  0
  3 11  2  0  0  0  0
  4 21  2  0  0  0  0
  5 27  1  0  0  0  0
  5 28  1  0  0  0  0
  6  7  1  0  0  0  0
  6  8  1  0  0  0  0
  6 10  1  0  0  0  0
  7 11  1  0  0  0  0
  7 12  1  0  0  0  0
  7 14  1  0  0  0  0
  8  9  1  0  0  0  0
  8 13  1  0  0  0  0
  8 29  1  0  0  0  0
  9 11  1  0  0  0  0
  9 30  1  0  0  0  0
  9 31  1  0  0  0  0
 10 15  1  0  0  0  0
 10 32  1  0  0  0  0
 10 33  1  0  0  0  0
 12 16  1  0  0  0  0
 12 34  1  0  0  0  0
 13 18  1  0  0  0  0
 13 19  1  0  0  0  0
 13 35  1  0  0  0  0
 14 36  1  0  0  0  0
 14 37  1  0  0  0  0
 14 38  1  0  0  0  0
 15 17  1  0  0  0  0
 15 39  1  0  0  0  0
 15 40  1  0  0  0  0
 16 17  2  0  0  0  0
 16 42  1  0  0  0  0
 17 20  1  0  0  0  0
 18 43  1  0  0  0  0
 18 44  1  0  0  0  0
 18 45  1  0  0  0  0
 19 46  1  0  0  0  0
 19 47  1  0  0  0  0
 19 48  1  0  0  0  0
 20 49  1  0  0  0  0
 20 50  1  0  0  0  0
 20 51  1  0  0  0  0
 21 22  1  0  0  0  0
 22 23  2  0  0  0  0
 22 24  1  0  0  0  0
 23 25  1  0  0  0  0
 23 52  1  0  0  0  0
 24 26  2  0  0  0  0
 24 53  1  0  0  0  0
 25 27  2  0  0  0  0
 25 54  1  0  0  0  0
 26 27  1  0  0  0  0
 26 55  1  0  0  0  0
 28 56  1  0  0  0  0
 28 57  1  0  0  0  0
 28 58  1  0  0  0  0
M  END
> <PUBCHEM_COMPOUND_CID>
56676058

> <PUBCHEM_CONFORMER_RMSD>
0.8

> <PUBCHEM_CONFORMER_DIVERSEORDER>
1
31
23
20
27
11
7
18
15
32
10
8
30
24
28
21
25
6
22
26
13
12
16
17
5
19
9
3
29
14
4
2

> <PUBCHEM_MMFF94_PARTIAL_CHARGES>
28
1 -0.68
11 0.45
12 0.42
15 0.14
16 -0.29
17 -0.28
2 -0.43
20 0.14
21 0.63
22 0.09
23 -0.15
24 -0.15
25 -0.15
26 -0.15
27 0.08
28 0.28
3 -0.57
4 -0.57
41 0.4
42 0.15
5 -0.36
52 0.15
53 0.15
54 0.15
55 0.15
6 0.28
7 0.06
9 0.06

> <PUBCHEM_EFFECTIVE_ROTOR_COUNT>
6

> <PUBCHEM_PHARMACOPHORE_FEATURES>
9
1 1 acceptor
1 1 donor
1 3 acceptor
1 4 acceptor
1 5 acceptor
3 13 18 19 hydrophobe
5 6 7 8 9 11 rings
6 22 23 24 25 26 27 rings
7 6 7 10 12 15 16 17 rings

> <PUBCHEM_HEAVY_ATOM_COUNT>
28

> <PUBCHEM_ATOM_DEF_STEREO_COUNT>
4

> <PUBCHEM_ATOM_UDEF_STEREO_COUNT>
0

> <PUBCHEM_BOND_DEF_STEREO_COUNT>
0

> <PUBCHEM_BOND_UDEF_STEREO_COUNT>
0

> <PUBCHEM_ISOTOPIC_ATOM_COUNT>
0

> <PUBCHEM_COMPONENT_COUNT>
1

> <PUBCHEM_CACTVS_TAUTO_COUNT>
2

> <PUBCHEM_CONFORMER_ID>
0360CEDA00000001

> <PUBCHEM_MMFF94_ENERGY>
100.692

> <PUBCHEM_FEATURE_SELFOVERLAP>
45.85

> <PUBCHEM_SHAPE_FINGERPRINT>
10554248 39 18126273152943251415
10670039 82 16845301497336410641
10674148 151 18341896308218986616
10906281 52 18189062065601353364
11578080 2 14404032856157092056
12107183 9 17688023112168518721
12236239 1 18413669102258176679
12596602 18 18343021099364910163
12597179 24 17458628938648442802
12788726 201 17417818296967294401
13533116 47 17969503719708335483
13631057 29 18117836836294533203
13785724 45 17693660312311178639
14739800 52 18130207329088785120
15081414 286 18260546710273981836
15183329 4 17418103099994837436
15238133 3 18059565871646763787
1577012 14 18201999903187824213
15788980 27 10663825182785990447
1601671 61 18187079589768985892
17980427 26 17912895535297972116
18608769 82 18196655318572656371
18681886 176 17274535537466072457
19319366 153 18333729108933812098
20511986 3 18342726417226581685
21033648 144 18335412462058473983
21033648 29 17846489383423424897
21065198 48 18412256234496638487
21421861 104 18262505997482777546
21424621 283 18338231691265668376
21781055 127 18408890642737545056
23559900 14 16630241493735126857
25147074 1 18339905091775471855
34934 24 18202278139025905782
4015057 19 10879695612435490135
4073 2 18337112370710724251
4340502 62 18187082866902918066
474 4 18187081805718798951
5104073 3 18408603652537354627
513532 50 17131823283741861690
5385378 56 18187079534066416402
57527295 17 18270397334491493510
5758199 1 18334295400614070720
5895379 119 16988007076459683251
59755656 215 18060142054816488428
59755656 520 18335979856443521694
633830 44 18197485436713011172
70251023 43 18121224169368061450
8509985 295 17988073397021673963

> <PUBCHEM_SHAPE_MULTIPOLES>
546.88
15.07
2.62
1.64
20.36
1.69
0.1
-9.43
1
-1.52
1.2
-0.99
0.18
-1.98

> <PUBCHEM_SHAPE_SELFOVERLAP>
1161.926

> <PUBCHEM_SHAPE_VOLUME>
305.2

> <PUBCHEM_COORDINATE_TYPE>
2
5
10

$$$$
