5460357
  -OEChem-02172602493D

 44 44  0     1  0  0  0  0  0999 V2000
    0.0106    1.1668   -0.6914 P   0  0  2  0  0  0  0  0  0  0  0  0
    0.8248    0.0528    0.1464 O   0  0  0  0  0  0  0  0  0  0  0  0
    1.8955   -2.5486    0.4923 O   0  0  0  0  0  0  0  0  0  0  0  0
    2.9067    1.5203    1.2270 O   0  0  0  0  0  0  0  0  0  0  0  0
    4.2873   -2.2159   -0.8933 O   0  0  0  0  0  0  0  0  0  0  0  0
    5.2736    1.8697   -0.1710 O   0  0  0  0  0  0  0  0  0  0  0  0
    6.3654   -0.7791    0.2050 O   0  0  0  0  0  0  0  0  0  0  0  0
   -1.4996    1.1115   -0.1086 O   0  0  0  0  0  0  0  0  0  0  0  0
   -0.1438    0.5247   -2.1692 O   0  0  0  0  0  0  0  0  0  0  0  0
    0.6354    2.5324   -0.6788 O   0  0  0  0  0  0  0  0  0  0  0  0
   -4.0672    2.2417    0.5863 O   0  0  0  0  0  0  0  0  0  0  0  0
   -4.6156    0.5278    1.9770 O   0  0  0  0  0  0  0  0  0  0  0  0
   -6.5952   -2.1737    0.1196 O   0  0  0  0  0  0  0  0  0  0  0  0
   -6.4854   -0.1722   -0.9465 O   0  0  0  0  0  0  0  0  0  0  0  0
    2.1700   -0.2608   -0.2131 C   0  0  0  0  0  0  0  0  0  0  0  0
    2.6813   -1.3771    0.7084 C   0  0  2  0  0  0  0  0  0  0  0  0
    3.0382    0.9983   -0.1006 C   0  0  2  0  0  0  0  0  0  0  0  0
    4.1570   -1.6946    0.4347 C   0  0  2  0  0  0  0  0  0  0  0  0
    4.5133    0.6801   -0.3756 C   0  0  2  0  0  0  0  0  0  0  0  0
    5.0242   -0.4355    0.5497 C   0  0  0  0  0  0  0  0  0  0  0  0
   -2.1674   -0.1383   -0.0824 C   0  0  0  0  0  0  0  0  0  0  0  0
   -3.6798    0.0548   -0.2338 C   0  0  1  0  0  0  0  0  0  0  0  0
   -4.4254   -1.2895   -0.2698 C   0  0  0  0  0  0  0  0  0  0  0  0
   -4.1802    0.9266    0.9068 C   0  0  0  0  0  0  0  0  0  0  0  0
   -5.9236   -1.1220   -0.4191 C   0  0  0  0  0  0  0  0  0  0  0  0
    2.1557   -0.6195   -1.2493 H   0  0  0  0  0  0  0  0  0  0  0  0
    2.5402   -1.0904    1.7574 H   0  0  0  0  0  0  0  0  0  0  0  0
    2.7383    1.7821   -0.7959 H   0  0  0  0  0  0  0  0  0  0  0  0
    4.5209   -2.4784    1.1085 H   0  0  0  0  0  0  0  0  0  0  0  0
    4.6475    0.3953   -1.4260 H   0  0  0  0  0  0  0  0  0  0  0  0
    5.0459   -0.0781    1.5862 H   0  0  0  0  0  0  0  0  0  0  0  0
    2.2344   -3.2409    1.0852 H   0  0  0  0  0  0  0  0  0  0  0  0
    3.4952    2.2915    1.2942 H   0  0  0  0  0  0  0  0  0  0  0  0
    3.7081   -2.9945   -0.9565 H   0  0  0  0  0  0  0  0  0  0  0  0
    6.2086    1.6446   -0.3157 H   0  0  0  0  0  0  0  0  0  0  0  0
    6.6570   -1.4747    0.8189 H   0  0  0  0  0  0  0  0  0  0  0  0
   -1.9343   -0.6193    0.8742 H   0  0  0  0  0  0  0  0  0  0  0  0
   -1.7995   -0.7897   -0.8819 H   0  0  0  0  0  0  0  0  0  0  0  0
   -3.8875    0.5946   -1.1677 H   0  0  0  0  0  0  0  0  0  0  0  0
    0.6060    0.5950   -2.7977 H   0  0  0  0  0  0  0  0  0  0  0  0
   -4.2316   -1.8390    0.6598 H   0  0  0  0  0  0  0  0  0  0  0  0
   -4.0729   -1.8998   -1.1085 H   0  0  0  0  0  0  0  0  0  0  0  0
   -4.3789    2.8228    1.3125 H   0  0  0  0  0  0  0  0  0  0  0  0
   -7.5666   -2.0714    0.0294 H   0  0  0  0  0  0  0  0  0  0  0  0
  1  2  1  0  0  0  0
  1  8  1  0  0  0  0
  1  9  1  0  0  0  0
  1 10  2  0  0  0  0
  2 15  1  0  0  0  0
  3 16  1  0  0  0  0
  3 32  1  0  0  0  0
  4 17  1  0  0  0  0
  4 33  1  0  0  0  0
  5 18  1  0  0  0  0
  5 34  1  0  0  0  0
  6 19  1  0  0  0  0
  6 35  1  0  0  0  0
  7 20  1  0  0  0  0
  7 36  1  0  0  0  0
  8 21  1  0  0  0  0
  9 40  1  0  0  0  0
 11 24  1  0  0  0  0
 11 43  1  0  0  0  0
 12 24  2  0  0  0  0
 13 25  1  0  0  0  0
 13 44  1  0  0  0  0
 14 25  2  0  0  0  0
 15 16  1  0  0  0  0
 15 17  1  0  0  0  0
 15 26  1  0  0  0  0
 16 18  1  0  0  0  0
 16 27  1  0  0  0  0
 17 19  1  0  0  0  0
 17 28  1  0  0  0  0
 18 20  1  0  0  0  0
 18 29  1  0  0  0  0
 19 20  1  0  0  0  0
 19 30  1  0  0  0  0
 20 31  1  0  0  0  0
 21 22  1  0  0  0  0
 21 37  1  0  0  0  0
 21 38  1  0  0  0  0
 22 23  1  0  0  0  0
 22 24  1  0  0  0  0
 22 39  1  0  0  0  0
 23 25  1  0  0  0  0
 23 41  1  0  0  0  0
 23 42  1  0  0  0  0
M  END
> <PUBCHEM_COMPOUND_CID>
5460357

> <PUBCHEM_CONFORMER_RMSD>
1.2

> <PUBCHEM_CONFORMER_DIVERSEORDER>
3
18
247
302
159
308
463
432
153
89
111
63
181
509
219
530
10
437
304
586
31
331
394
461
407
479
267
113
44
98
503
66
414
450
368
254
285
195
76
255
67
371
338
540
136
78
287
335
180
355
590
416
360
9
158
281
107
587
250
243
538
398
380
116
125
2
96
213
185
519
447
333
70
493
303
58
5
54
55
292
374
505
43
566
309
602
496
61
145
106
423
16
187
100
541
237
1
387
289
130
33
484
129
81
235
296
72
508
524
252
397
317
197
41
94
550
204
272
245
218
161
168
50
430
87
426
83
17
20
265
8
364
206
202
4
120
460
455
47
212
199
203
62
69
565
427
139
443
73
108
418
37
339
293
211
23
495
190
27
329
80
210
275
240
64
558
57
90
29
52
40
367
164
311
53

> <PUBCHEM_MMFF94_PARTIAL_CHARGES>
33
1 1.51
10 -0.7
11 -0.65
12 -0.57
13 -0.65
14 -0.57
15 0.28
16 0.28
17 0.28
18 0.28
19 0.28
2 -0.55
20 0.28
21 0.28
22 0.06
23 0.06
24 0.66
25 0.66
3 -0.68
32 0.4
33 0.4
34 0.4
35 0.4
36 0.4
4 -0.68
40 0.5
43 0.5
44 0.5
5 -0.68
6 -0.68
7 -0.68
8 -0.55
9 -0.77

> <PUBCHEM_EFFECTIVE_ROTOR_COUNT>
9.2

> <PUBCHEM_PHARMACOPHORE_FEATURES>
19
1 10 acceptor
1 11 acceptor
1 12 acceptor
1 13 acceptor
1 14 acceptor
1 3 acceptor
1 3 donor
1 4 acceptor
1 4 donor
1 5 acceptor
1 5 donor
1 6 acceptor
1 6 donor
1 7 acceptor
1 7 donor
1 9 acceptor
3 11 12 24 anion
3 13 14 25 anion
6 15 16 17 18 19 20 rings

> <PUBCHEM_HEAVY_ATOM_COUNT>
25

> <PUBCHEM_ATOM_DEF_STEREO_COUNT>
1

> <PUBCHEM_ATOM_UDEF_STEREO_COUNT>
4

> <PUBCHEM_BOND_DEF_STEREO_COUNT>
0

> <PUBCHEM_BOND_UDEF_STEREO_COUNT>
0

> <PUBCHEM_ISOTOPIC_ATOM_COUNT>
0

> <PUBCHEM_COMPONENT_COUNT>
1

> <PUBCHEM_CACTVS_TAUTO_COUNT>
1

> <PUBCHEM_CONFORMER_ID>
0053518500000003

> <PUBCHEM_MMFF94_ENERGY>
38.3896

> <PUBCHEM_FEATURE_SELFOVERLAP>
96.596

> <PUBCHEM_SHAPE_FINGERPRINT>
10595046 47 18411700989081277321
11578080 2 16915076664407711578
12107183 9 17693379941066106227
12236239 1 18342458157980168309
12516196 113 18335135410317770541
12596602 18 17917713495717436177
13167823 11 18342455928734015975
13464513 79 18333730204888456850
13533116 47 18340485690134017017
13544653 18 18113621166314392621
13583140 156 17417514836010647185
13685833 64 18040999574947037467
13862211 1 18259700082452777538
14211702 104 18337963393391403511
14341114 176 18341332283858979727
15788980 27 13551475864711104433
15880784 105 18342181037752201467
17834072 33 18342454859128728375
17844677 252 18334579014273842828
17857418 61 18410290307336721491
1813 80 17313108535740948708
18222031 100 17748823033565827557
20028762 73 18411132503258831666
21065198 48 18272091582660944033
21267235 1 18410858767337700646
22224240 67 18262795285300515304
23522609 53 18046094621520482644
23557571 272 16370995266045829228
23559900 14 18264200486904301489
2871803 45 17894908503818985858
3004659 81 17894624863941283670
314173 85 17240484693494303773
34797466 226 17060065903565129236
3633792 109 18334565833968088791
4073 2 18114466746691045251
4325135 7 18408038520471235422
465052 167 18273496784148517086
5104073 3 18273211971802752753

> <PUBCHEM_SHAPE_MULTIPOLES>
442.04
16.19
2.31
1.13
11.54
0.2
-0.01
5.45
0.93
-0.63
0.04
0.64
-0.23
-0.74

> <PUBCHEM_SHAPE_SELFOVERLAP>
882.605

> <PUBCHEM_SHAPE_VOLUME>
259.8

> <PUBCHEM_COORDINATE_TYPE>
2
5
10

$$$$
