101702520
  -OEChem-02172602563D

 61 63  0     1  0  0  0  0  0999 V2000
    2.9588   -2.1446    0.6782 O   0  0  0  0  0  0  0  0  0  0  0  0
   -1.6893    1.4757    0.2963 O   0  0  0  0  0  0  0  0  0  0  0  0
   -2.9056   -0.1152   -0.9011 O   0  0  0  0  0  0  0  0  0  0  0  0
   -3.5190    1.2284    2.4407 O   0  0  0  0  0  0  0  0  0  0  0  0
   -6.1864    0.3823    1.5186 O   0  0  0  0  0  0  0  0  0  0  0  0
   -5.9805   -1.9616   -0.1605 O   0  0  0  0  0  0  0  0  0  0  0  0
    4.8307   -3.4672    0.5816 O   0  0  0  0  0  0  0  0  0  0  0  0
   -2.6651   -2.1012   -2.7863 O   0  0  0  0  0  0  0  0  0  0  0  0
    3.9865   -0.0412    0.4191 C   0  0  1  0  0  0  0  0  0  0  0  0
    2.7083   -0.7485    0.9318 C   0  0  1  0  0  0  0  0  0  0  0  0
    5.0225   -1.0588    0.9312 C   0  0  1  0  0  0  0  0  0  0  0  0
    4.0384    0.2091   -1.1207 C   0  0  0  0  0  0  0  0  0  0  0  0
   -2.5952    0.3777    0.4001 C   0  0  2  0  0  0  0  0  0  0  0  0
   -3.8597    0.8753    1.1003 C   0  0  1  0  0  0  0  0  0  0  0  0
   -4.9451   -0.2010    1.1191 C   0  0  2  0  0  0  0  0  0  0  0  0
   -0.4756    1.0902   -0.3430 C   0  0  2  0  0  0  0  0  0  0  0  0
   -5.1368   -0.8178   -0.2665 C   0  0  1  0  0  0  0  0  0  0  0  0
    3.9048    1.6912   -1.5590 C   0  0  0  0  0  0  0  0  0  0  0  0
    1.4226   -0.3534    0.2763 C   0  0  0  0  0  0  0  0  0  0  0  0
    4.3105   -2.3694    0.6993 C   0  0  0  0  0  0  0  0  0  0  0  0
   -3.7919   -1.2351   -0.8660 C   0  0  1  0  0  0  0  0  0  0  0  0
    0.5501    0.5957    0.6757 C   0  0  0  0  0  0  0  0  0  0  0  0
    6.4136   -1.0141    0.3255 C   0  0  0  0  0  0  0  0  0  0  0  0
    0.0691    2.2941   -1.1552 C   0  0  0  0  0  0  0  0  0  0  0  0
    2.6226    2.3854   -1.1498 C   0  0  0  0  0  0  0  0  0  0  0  0
    1.4488    1.9959   -1.6891 C   0  0  0  0  0  0  0  0  0  0  0  0
   -3.9447   -1.7457   -2.2953 C   0  0  0  0  0  0  0  0  0  0  0  0
    0.6313    1.3446    1.9766 C   0  0  0  0  0  0  0  0  0  0  0  0
    2.7764    3.4291   -0.0780 C   0  0  0  0  0  0  0  0  0  0  0  0
    4.1319    0.9099    0.9421 H   0  0  0  0  0  0  0  0  0  0  0  0
    2.6264   -0.6516    2.0210 H   0  0  0  0  0  0  0  0  0  0  0  0
    5.1195   -0.9434    2.0198 H   0  0  0  0  0  0  0  0  0  0  0  0
    3.2921   -0.3979   -1.6448 H   0  0  0  0  0  0  0  0  0  0  0  0
    4.9962   -0.1199   -1.5325 H   0  0  0  0  0  0  0  0  0  0  0  0
   -4.2312    1.7873    0.6180 H   0  0  0  0  0  0  0  0  0  0  0  0
   -2.1148   -0.4125    0.9931 H   0  0  0  0  0  0  0  0  0  0  0  0
   -4.7177   -0.9737    1.8629 H   0  0  0  0  0  0  0  0  0  0  0  0
   -0.6627    0.2943   -1.0768 H   0  0  0  0  0  0  0  0  0  0  0  0
   -5.6416   -0.0989   -0.9233 H   0  0  0  0  0  0  0  0  0  0  0  0
    3.9974    1.7403   -2.6522 H   0  0  0  0  0  0  0  0  0  0  0  0
    4.7681    2.2464   -1.1701 H   0  0  0  0  0  0  0  0  0  0  0  0
    1.2580   -0.8105   -0.6995 H   0  0  0  0  0  0  0  0  0  0  0  0
   -3.3240   -2.0306   -0.2700 H   0  0  0  0  0  0  0  0  0  0  0  0
    6.4453   -1.4352   -0.6844 H   0  0  0  0  0  0  0  0  0  0  0  0
    7.1023   -1.6170    0.9286 H   0  0  0  0  0  0  0  0  0  0  0  0
    6.8006    0.0092    0.3008 H   0  0  0  0  0  0  0  0  0  0  0  0
    0.0391    3.2015   -0.5444 H   0  0  0  0  0  0  0  0  0  0  0  0
   -0.6062    2.5002   -1.9951 H   0  0  0  0  0  0  0  0  0  0  0  0
    1.4715    1.2442   -2.4776 H   0  0  0  0  0  0  0  0  0  0  0  0
   -4.3465   -0.9635   -2.9480 H   0  0  0  0  0  0  0  0  0  0  0  0
   -4.5951   -2.6244   -2.3407 H   0  0  0  0  0  0  0  0  0  0  0  0
    0.6033    2.4251    1.8056 H   0  0  0  0  0  0  0  0  0  0  0  0
    1.5446    1.1356    2.5383 H   0  0  0  0  0  0  0  0  0  0  0  0
   -0.2188    1.0788    2.6131 H   0  0  0  0  0  0  0  0  0  0  0  0
   -3.1790    0.4329    2.8849 H   0  0  0  0  0  0  0  0  0  0  0  0
    3.1171    2.9782    0.8580 H   0  0  0  0  0  0  0  0  0  0  0  0
    1.8557    3.9774    0.1307 H   0  0  0  0  0  0  0  0  0  0  0  0
    3.5176    4.1737   -0.3887 H   0  0  0  0  0  0  0  0  0  0  0  0
   -6.4074    1.0865    0.8855 H   0  0  0  0  0  0  0  0  0  0  0  0
   -5.5352   -2.6116    0.4095 H   0  0  0  0  0  0  0  0  0  0  0  0
   -2.7852   -2.4185   -3.6975 H   0  0  0  0  0  0  0  0  0  0  0  0
  1 10  1  0  0  0  0
  1 20  1  0  0  0  0
  2 13  1  0  0  0  0
  2 16  1  0  0  0  0
  3 13  1  0  0  0  0
  3 21  1  0  0  0  0
  4 14  1  0  0  0  0
  4 55  1  0  0  0  0
  5 15  1  0  0  0  0
  5 59  1  0  0  0  0
  6 17  1  0  0  0  0
  6 60  1  0  0  0  0
  7 20  2  0  0  0  0
  8 27  1  0  0  0  0
  8 61  1  0  0  0  0
  9 10  1  0  0  0  0
  9 11  1  0  0  0  0
  9 12  1  0  0  0  0
  9 30  1  0  0  0  0
 10 19  1  0  0  0  0
 10 31  1  0  0  0  0
 11 20  1  0  0  0  0
 11 23  1  0  0  0  0
 11 32  1  0  0  0  0
 12 18  1  0  0  0  0
 12 33  1  0  0  0  0
 12 34  1  0  0  0  0
 13 14  1  0  0  0  0
 13 36  1  0  0  0  0
 14 15  1  0  0  0  0
 14 35  1  0  0  0  0
 15 17  1  0  0  0  0
 15 37  1  0  0  0  0
 16 22  1  0  0  0  0
 16 24  1  0  0  0  0
 16 38  1  0  0  0  0
 17 21  1  0  0  0  0
 17 39  1  0  0  0  0
 18 25  1  0  0  0  0
 18 40  1  0  0  0  0
 18 41  1  0  0  0  0
 19 22  2  0  0  0  0
 19 42  1  0  0  0  0
 21 27  1  0  0  0  0
 21 43  1  0  0  0  0
 22 28  1  0  0  0  0
 23 44  1  0  0  0  0
 23 45  1  0  0  0  0
 23 46  1  0  0  0  0
 24 26  1  0  0  0  0
 24 47  1  0  0  0  0
 24 48  1  0  0  0  0
 25 26  2  0  0  0  0
 25 29  1  0  0  0  0
 26 49  1  0  0  0  0
 27 50  1  0  0  0  0
 27 51  1  0  0  0  0
 28 52  1  0  0  0  0
 28 53  1  0  0  0  0
 28 54  1  0  0  0  0
 29 56  1  0  0  0  0
 29 57  1  0  0  0  0
 29 58  1  0  0  0  0
M  END
> <PUBCHEM_COMPOUND_CID>
101702520

> <PUBCHEM_CONFORMER_RMSD>
0.8

> <PUBCHEM_CONFORMER_DIVERSEORDER>
1
68
34
16
27
61
56
15
57
33
2
55
28
67
36
17
30
24
41
81
48
8
76
5
50
52
45
12
73
7
75
51
40
78
11
60
10
47
43
9
14
25
49
70
53
37
22
71
58
29
39
46
44
26
18
63
69
23
77
20
6
80
42
59
3
19
54
79
66
13
64
31
32
21
65
35
72
82
62
74
38
4

> <PUBCHEM_MMFF94_PARTIAL_CHARGES>
32
1 -0.43
10 0.42
11 0.06
13 0.56
14 0.28
15 0.28
16 0.42
17 0.28
18 0.14
19 -0.29
2 -0.56
20 0.66
21 0.28
22 -0.28
24 0.14
25 -0.28
26 -0.29
27 0.28
28 0.14
29 0.14
3 -0.56
4 -0.68
42 0.15
49 0.15
5 -0.68
55 0.4
59 0.4
6 -0.68
60 0.4
61 0.4
7 -0.57
8 -0.68

> <PUBCHEM_EFFECTIVE_ROTOR_COUNT>
5.4

> <PUBCHEM_PHARMACOPHORE_FEATURES>
13
1 2 acceptor
1 3 acceptor
1 4 acceptor
1 4 donor
1 5 acceptor
1 5 donor
1 6 acceptor
1 6 donor
1 7 acceptor
1 8 acceptor
1 8 donor
5 1 9 10 11 20 rings
6 3 13 14 15 17 21 rings

> <PUBCHEM_HEAVY_ATOM_COUNT>
29

> <PUBCHEM_ATOM_DEF_STEREO_COUNT>
9

> <PUBCHEM_ATOM_UDEF_STEREO_COUNT>
0

> <PUBCHEM_BOND_DEF_STEREO_COUNT>
2

> <PUBCHEM_BOND_UDEF_STEREO_COUNT>
0

> <PUBCHEM_ISOTOPIC_ATOM_COUNT>
0

> <PUBCHEM_COMPONENT_COUNT>
1

> <PUBCHEM_CACTVS_TAUTO_COUNT>
2

> <PUBCHEM_CONFORMER_ID>
060FDB7800000001

> <PUBCHEM_MMFF94_ENERGY>
80.5199

> <PUBCHEM_FEATURE_SELFOVERLAP>
66.036

> <PUBCHEM_SHAPE_FINGERPRINT>
10622 236 18127955602807314111
11135926 11 17969227909593008836
11578080 2 18126537146354482328
12107183 9 18193848033300507105
12236239 1 18341620342793961573
12422481 6 18129666279326839871
12616971 3 18411138056244402173
12623949 98 18057046809837470086
12633257 1 16845289488486427139
13533116 47 18334863848194287417
13726171 33 16914555512379702185
13782708 43 18119799228564081746
14251757 17 16443058396201817884
15250474 111 18271522104252062799
15320294 125 18130785625430327327
15537594 2 18413110549897800079
17357779 13 17458338598985638308
1813 80 18337117752467886958
20028762 73 18410856564289074702
20511986 3 18343297098031685669
20554085 129 16845021087864763569
20645477 70 17749386005241998548
20775438 99 18042681891782834282
20775530 9 18192140509011896186
23559900 14 15719398351550387528
23569914 152 17247477467494103271
2838139 119 8502366750138882570
314194 84 18260274023021729258
338550 245 18130791135504193894
4015057 19 18041285447400619145
46194498 28 16081380707833975572
463206 1 18334858376484936934
484989 97 17096106782511480178
602551 16 17203330047875736239
6669772 16 17023462079429499424
6823239 73 15068621612440970214
9849439 229 16552027498082091217

> <PUBCHEM_SHAPE_MULTIPOLES>
549.85
14.03
3.14
1.99
7.1
0.06
0.51
-8.67
-1.69
-3.96
0.68
2.1
0
-3.24

> <PUBCHEM_SHAPE_SELFOVERLAP>
1136.161

> <PUBCHEM_SHAPE_VOLUME>
312.6

> <PUBCHEM_COORDINATE_TYPE>
2
5
10

$$$$
