6475682
  -OEChem-02172602363D

 56 56  0     0  0  0  0  0  0999 V2000
   -3.6858   -2.7253   -0.2524 O   0  0  0  0  0  0  0  0  0  0  0  0
   -2.5789    2.7320    0.5492 O   0  0  0  0  0  0  0  0  0  0  0  0
   -0.8712    0.7283    1.3934 O   0  0  0  0  0  0  0  0  0  0  0  0
   -5.3637   -0.6942   -1.0813 O   0  0  0  0  0  0  0  0  0  0  0  0
    1.8986   -3.8352   -0.4555 C   0  0  0  0  0  0  0  0  0  0  0  0
    0.8516   -3.4302    0.5877 C   0  0  0  0  0  0  0  0  0  0  0  0
    2.7633   -2.6986   -1.0093 C   0  0  0  0  0  0  0  0  0  0  0  0
   -0.1307   -2.3683    0.0822 C   0  0  0  0  0  0  0  0  0  0  0  0
    3.6195   -2.0092    0.0553 C   0  0  0  0  0  0  0  0  0  0  0  0
   -1.2229   -2.0343    1.1022 C   0  0  0  0  0  0  0  0  0  0  0  0
    4.4539   -0.8789   -0.5524 C   0  0  0  0  0  0  0  0  0  0  0  0
   -2.2275   -1.0537    0.5965 C   0  0  0  0  0  0  0  0  0  0  0  0
   -3.3629   -1.4010   -0.0286 C   0  0  0  0  0  0  0  0  0  0  0  0
    5.3201   -0.2264    0.4855 C   0  0  0  0  0  0  0  0  0  0  0  0
   -1.9036    0.3846    0.8243 C   0  0  0  0  0  0  0  0  0  0  0  0
   -2.8705    1.3995    0.3423 C   0  0  0  0  0  0  0  0  0  0  0  0
   -4.3251   -0.3788   -0.5094 C   0  0  0  0  0  0  0  0  0  0  0  0
    4.9493    0.8477    1.1982 C   0  0  0  0  0  0  0  0  0  0  0  0
   -3.9948    1.0387   -0.2773 C   0  0  0  0  0  0  0  0  0  0  0  0
    3.6218    1.5310    1.0463 C   0  0  0  0  0  0  0  0  0  0  0  0
    3.6777    2.6220    0.0172 C   0  0  0  0  0  0  0  0  0  0  0  0
   -3.0999    3.1735    1.7877 C   0  0  0  0  0  0  0  0  0  0  0  0
    2.6279    2.9968   -0.7297 C   0  0  0  0  0  0  0  0  0  0  0  0
    1.2671    2.3714   -0.6291 C   0  0  0  0  0  0  0  0  0  0  0  0
    0.8388    1.7659   -1.9330 C   0  0  0  0  0  0  0  0  0  0  0  0
   -0.2520    2.1428   -2.6098 C   0  0  0  0  0  0  0  0  0  0  0  0
    1.3855   -4.3169   -1.2974 H   0  0  0  0  0  0  0  0  0  0  0  0
    2.5512   -4.5995   -0.0156 H   0  0  0  0  0  0  0  0  0  0  0  0
    0.2914   -4.3284    0.8761 H   0  0  0  0  0  0  0  0  0  0  0  0
    1.3464   -3.0718    1.4974 H   0  0  0  0  0  0  0  0  0  0  0  0
    2.1352   -1.9616   -1.5224 H   0  0  0  0  0  0  0  0  0  0  0  0
    3.4259   -3.1188   -1.7767 H   0  0  0  0  0  0  0  0  0  0  0  0
    0.4120   -1.4475   -0.1615 H   0  0  0  0  0  0  0  0  0  0  0  0
   -0.5920   -2.7220   -0.8486 H   0  0  0  0  0  0  0  0  0  0  0  0
    2.9776   -1.6037    0.8451 H   0  0  0  0  0  0  0  0  0  0  0  0
    4.2788   -2.7488    0.5270 H   0  0  0  0  0  0  0  0  0  0  0  0
   -0.7638   -1.6731    2.0311 H   0  0  0  0  0  0  0  0  0  0  0  0
   -1.7297   -2.9648    1.3911 H   0  0  0  0  0  0  0  0  0  0  0  0
    3.8043   -0.1543   -1.0551 H   0  0  0  0  0  0  0  0  0  0  0  0
    5.1080   -1.2812   -1.3362 H   0  0  0  0  0  0  0  0  0  0  0  0
    6.2976   -0.6646    0.6678 H   0  0  0  0  0  0  0  0  0  0  0  0
    5.6460    1.2595    1.9240 H   0  0  0  0  0  0  0  0  0  0  0  0
   -4.7041    1.7783   -0.6335 H   0  0  0  0  0  0  0  0  0  0  0  0
    2.8513    0.7831    0.8509 H   0  0  0  0  0  0  0  0  0  0  0  0
    3.3696    1.9800    2.0152 H   0  0  0  0  0  0  0  0  0  0  0  0
   -4.5413   -2.7442   -0.7153 H   0  0  0  0  0  0  0  0  0  0  0  0
    4.6086    3.1727   -0.0985 H   0  0  0  0  0  0  0  0  0  0  0  0
   -2.8240    4.2243    1.9180 H   0  0  0  0  0  0  0  0  0  0  0  0
   -2.6761    2.6081    2.6250 H   0  0  0  0  0  0  0  0  0  0  0  0
   -4.1935    3.1083    1.8058 H   0  0  0  0  0  0  0  0  0  0  0  0
    2.7545    3.8190   -1.4300 H   0  0  0  0  0  0  0  0  0  0  0  0
    1.1895    1.6047    0.1411 H   0  0  0  0  0  0  0  0  0  0  0  0
    0.5643    3.1597   -0.3291 H   0  0  0  0  0  0  0  0  0  0  0  0
    1.4443    0.9560   -2.3331 H   0  0  0  0  0  0  0  0  0  0  0  0
   -0.5151    1.6555   -3.5422 H   0  0  0  0  0  0  0  0  0  0  0  0
   -0.8981    2.9358   -2.2498 H   0  0  0  0  0  0  0  0  0  0  0  0
  1 13  1  0  0  0  0
  1 46  1  0  0  0  0
  2 16  1  0  0  0  0
  2 22  1  0  0  0  0
  3 15  2  0  0  0  0
  4 17  2  0  0  0  0
  5  6  1  0  0  0  0
  5  7  1  0  0  0  0
  5 27  1  0  0  0  0
  5 28  1  0  0  0  0
  6  8  1  0  0  0  0
  6 29  1  0  0  0  0
  6 30  1  0  0  0  0
  7  9  1  0  0  0  0
  7 31  1  0  0  0  0
  7 32  1  0  0  0  0
  8 10  1  0  0  0  0
  8 33  1  0  0  0  0
  8 34  1  0  0  0  0
  9 11  1  0  0  0  0
  9 35  1  0  0  0  0
  9 36  1  0  0  0  0
 10 12  1  0  0  0  0
 10 37  1  0  0  0  0
 10 38  1  0  0  0  0
 11 14  1  0  0  0  0
 11 39  1  0  0  0  0
 11 40  1  0  0  0  0
 12 13  2  0  0  0  0
 12 15  1  0  0  0  0
 13 17  1  0  0  0  0
 14 18  2  0  0  0  0
 14 41  1  0  0  0  0
 15 16  1  0  0  0  0
 16 19  2  0  0  0  0
 17 19  1  0  0  0  0
 18 20  1  0  0  0  0
 18 42  1  0  0  0  0
 19 43  1  0  0  0  0
 20 21  1  0  0  0  0
 20 44  1  0  0  0  0
 20 45  1  0  0  0  0
 21 23  2  0  0  0  0
 21 47  1  0  0  0  0
 22 48  1  0  0  0  0
 22 49  1  0  0  0  0
 22 50  1  0  0  0  0
 23 24  1  0  0  0  0
 23 51  1  0  0  0  0
 24 25  1  0  0  0  0
 24 52  1  0  0  0  0
 24 53  1  0  0  0  0
 25 26  2  0  0  0  0
 25 54  1  0  0  0  0
 26 55  1  0  0  0  0
 26 56  1  0  0  0  0
M  END
> <PUBCHEM_COMPOUND_CID>
6475682

> <PUBCHEM_CONFORMER_RMSD>
1.4

> <PUBCHEM_CONFORMER_DIVERSEORDER>
1
76
35
13
54
70
57
14
89
125
37
45
114
26
9
103
131
6
41
126
122
102
105
87
120
56
5
25
132
127
92
86
11
95
77
96
7
71
124
63
109
104
119
50
36
64
128
72
108
46
101
40
15
91
60
22
81
27
38
110
115
19
17
99
90
94
10
51
52
21
59
73
8
116
88
47
42
16
83
69
79
18
117
113
112
58
67
75
130
106
3
68
121
39
53
85
12
78
23
55
48
61
80
2
29
31
43
65
100
74
20
93
32
24
28
49
44
118
82
84
4
34
111
97
33
98
30
129
123
62
66
107

> <PUBCHEM_MMFF94_PARTIAL_CHARGES>
30
1 -0.53
10 0.14
11 0.14
12 -0.12
13 0.09
14 -0.29
15 0.54
16 0.09
17 0.54
18 -0.29
19 -0.14
2 -0.36
20 0.28
21 -0.29
22 0.28
23 -0.29
24 0.28
25 -0.29
26 -0.3
3 -0.57
4 -0.57
41 0.15
42 0.15
43 0.15
46 0.45
47 0.15
51 0.15
54 0.15
55 0.15
56 0.15

> <PUBCHEM_EFFECTIVE_ROTOR_COUNT>
13

> <PUBCHEM_PHARMACOPHORE_FEATURES>
6
1 1 donor
1 2 acceptor
1 26 hydrophobe
1 3 acceptor
1 4 acceptor
6 12 13 15 16 17 19 rings

> <PUBCHEM_HEAVY_ATOM_COUNT>
26

> <PUBCHEM_ATOM_DEF_STEREO_COUNT>
0

> <PUBCHEM_ATOM_UDEF_STEREO_COUNT>
0

> <PUBCHEM_BOND_DEF_STEREO_COUNT>
2

> <PUBCHEM_BOND_UDEF_STEREO_COUNT>
0

> <PUBCHEM_ISOTOPIC_ATOM_COUNT>
0

> <PUBCHEM_COMPONENT_COUNT>
1

> <PUBCHEM_CACTVS_TAUTO_COUNT>
26

> <PUBCHEM_CONFORMER_ID>
0062CFA200000001

> <PUBCHEM_MMFF94_ENERGY>
36.3406

> <PUBCHEM_FEATURE_SELFOVERLAP>
30.451

> <PUBCHEM_SHAPE_FINGERPRINT>
10708813 3 18340212877742332656
11370993 70 18341327898723725016
11513181 2 17916866811672092670
12467345 10 18059568100787433974
12633257 1 18263078834598568088
12978246 48 18265899240679218090
13402501 40 18336262358692518550
13533116 47 18342174513565444892
13583140 156 17632284692690418304
14251764 38 18412830191870802488
14790565 3 17408249067030138089
14955137 171 17403771872929729129
19930381 70 18266456508211441496
20764821 26 17756980117617633018
20775438 99 17398905485382347607
23559900 14 18341888602056108488
25265897 201 17485674592324023999
3493558 16 17843406184882782896
404807 14 17622452644871469759
463206 1 18054504991808353103
57527585 103 17532397381516525387
6287921 2 18411708677004340594
6669772 16 17412161532780212665

> <PUBCHEM_SHAPE_MULTIPOLES>
511.59
10.36
4.96
1.59
1.5
1.41
0.54
-0.66
-1.01
1.62
0.28
-0.16
-1.21
-0.4

> <PUBCHEM_SHAPE_SELFOVERLAP>
1016.947

> <PUBCHEM_SHAPE_VOLUME>
300.5

> <PUBCHEM_COORDINATE_TYPE>
2
5
10

$$$$
