102434445
  -OEChem-02172602453D

 84 88  0     0  0  0  0  0  0999 V2000
    1.3572   -0.7772    0.1952 N   0  0  0  0  0  0  0  0  0  0  0  0
   -1.3579   -0.7768   -0.1986 N   0  0  0  0  0  0  0  0  0  0  0  0
    0.6880    0.4737    0.0988 C   0  0  0  0  0  0  0  0  0  0  0  0
   -0.6885    0.4740   -0.1017 C   0  0  0  0  0  0  0  0  0  0  0  0
    2.6565   -1.1792   -0.1396 C   0  0  0  0  0  0  0  0  0  0  0  0
   -2.6566   -1.1791    0.1378 C   0  0  0  0  0  0  0  0  0  0  0  0
    1.3974    1.6729    0.2035 C   0  0  0  0  0  0  0  0  0  0  0  0
   -1.3977    1.6734   -0.2036 C   0  0  0  0  0  0  0  0  0  0  0  0
    3.5027   -1.6924    0.8434 C   0  0  0  0  0  0  0  0  0  0  0  0
   -3.5045   -1.6911   -0.8442 C   0  0  0  0  0  0  0  0  0  0  0  0
    3.1041   -1.0665   -1.4558 C   0  0  0  0  0  0  0  0  0  0  0  0
   -3.1019   -1.0681    1.4549 C   0  0  0  0  0  0  0  0  0  0  0  0
    0.7124    2.9121    0.1050 C   0  0  0  0  0  0  0  0  0  0  0  0
   -0.7125    2.9124   -0.1025 C   0  0  0  0  0  0  0  0  0  0  0  0
    3.0515   -1.8250    2.2617 C   0  0  0  0  0  0  0  0  0  0  0  0
   -3.0557   -1.8219   -2.2636 C   0  0  0  0  0  0  0  0  0  0  0  0
    2.2206   -0.5206   -2.5302 C   0  0  0  0  0  0  0  0  0  0  0  0
   -2.2165   -0.5236    2.5286 C   0  0  0  0  0  0  0  0  0  0  0  0
    4.7967   -2.0929    0.5100 C   0  0  0  0  0  0  0  0  0  0  0  0
   -4.7979   -2.0920   -0.5092 C   0  0  0  0  0  0  0  0  0  0  0  0
    4.3979   -1.4669   -1.7892 C   0  0  0  0  0  0  0  0  0  0  0  0
   -4.3951   -1.4690    1.7900 C   0  0  0  0  0  0  0  0  0  0  0  0
    2.7877    1.6383    0.4061 C   0  0  0  0  0  0  0  0  0  0  0  0
   -2.7881    1.6396   -0.4061 C   0  0  0  0  0  0  0  0  0  0  0  0
    1.4997    4.0851    0.2211 C   0  0  0  0  0  0  0  0  0  0  0  0
   -1.4996    4.0858   -0.2162 C   0  0  0  0  0  0  0  0  0  0  0  0
    3.8873   -0.9635    3.2254 C   0  0  0  0  0  0  0  0  0  0  0  0
    3.0421   -3.2884    2.7394 C   0  0  0  0  0  0  0  0  0  0  0  0
   -3.8932   -0.9592   -3.2247 C   0  0  0  0  0  0  0  0  0  0  0  0
   -3.0472   -3.2847   -2.7430 C   0  0  0  0  0  0  0  0  0  0  0  0
    1.9368   -1.5530   -3.6362 C   0  0  0  0  0  0  0  0  0  0  0  0
    2.7815    0.7720   -3.1499 C   0  0  0  0  0  0  0  0  0  0  0  0
   -2.7764    0.7683    3.1509 C   0  0  0  0  0  0  0  0  0  0  0  0
   -1.9310   -1.5575    3.6328 C   0  0  0  0  0  0  0  0  0  0  0  0
    5.2442   -1.9801   -0.8062 C   0  0  0  0  0  0  0  0  0  0  0  0
   -5.2433   -1.9809    0.8079 C   0  0  0  0  0  0  0  0  0  0  0  0
    3.5258    2.8127    0.5151 C   0  0  0  0  0  0  0  0  0  0  0  0
   -3.5262    2.8145   -0.5123 C   0  0  0  0  0  0  0  0  0  0  0  0
    2.8817    4.0366    0.4227 C   0  0  0  0  0  0  0  0  0  0  0  0
   -2.8817    4.0380   -0.4174 C   0  0  0  0  0  0  0  0  0  0  0  0
    0.7900   -1.5165    0.5991 H   0  0  0  0  0  0  0  0  0  0  0  0
   -0.7913   -1.5158   -0.6040 H   0  0  0  0  0  0  0  0  0  0  0  0
    2.0215   -1.4715    2.3805 H   0  0  0  0  0  0  0  0  0  0  0  0
   -2.0259   -1.4683   -2.3837 H   0  0  0  0  0  0  0  0  0  0  0  0
    1.2276   -0.2678   -2.1632 H   0  0  0  0  0  0  0  0  0  0  0  0
   -1.2241   -0.2705    2.1602 H   0  0  0  0  0  0  0  0  0  0  0  0
    5.4753   -2.4956    1.2568 H   0  0  0  0  0  0  0  0  0  0  0  0
   -5.4778   -2.4937   -1.2553 H   0  0  0  0  0  0  0  0  0  0  0  0
    4.7706   -1.3889   -2.8066 H   0  0  0  0  0  0  0  0  0  0  0  0
   -4.7661   -1.3923    2.8082 H   0  0  0  0  0  0  0  0  0  0  0  0
    3.3954    0.7761    0.5853 H   0  0  0  0  0  0  0  0  0  0  0  0
   -3.3956    0.7776   -0.5870 H   0  0  0  0  0  0  0  0  0  0  0  0
    1.0494    5.0724    0.1576 H   0  0  0  0  0  0  0  0  0  0  0  0
   -1.0491    5.0729   -0.1507 H   0  0  0  0  0  0  0  0  0  0  0  0
    3.8778    0.0888    2.9234 H   0  0  0  0  0  0  0  0  0  0  0  0
    3.4806   -1.0215    4.2411 H   0  0  0  0  0  0  0  0  0  0  0  0
    4.9317   -1.2903    3.2692 H   0  0  0  0  0  0  0  0  0  0  0  0
    2.6212   -3.3600    3.7483 H   0  0  0  0  0  0  0  0  0  0  0  0
    2.4301   -3.9096    2.0759 H   0  0  0  0  0  0  0  0  0  0  0  0
    4.0488   -3.7186    2.7692 H   0  0  0  0  0  0  0  0  0  0  0  0
   -3.8831    0.0928   -2.9215 H   0  0  0  0  0  0  0  0  0  0  0  0
   -3.4883   -1.0161   -4.2412 H   0  0  0  0  0  0  0  0  0  0  0  0
   -4.9377   -1.2858   -3.2670 H   0  0  0  0  0  0  0  0  0  0  0  0
   -2.4341   -3.9068   -2.0814 H   0  0  0  0  0  0  0  0  0  0  0  0
   -2.6281   -3.3551   -3.7528 H   0  0  0  0  0  0  0  0  0  0  0  0
   -4.0540   -3.7148   -2.7716 H   0  0  0  0  0  0  0  0  0  0  0  0
    1.5092   -2.4688   -3.2126 H   0  0  0  0  0  0  0  0  0  0  0  0
    2.8434   -1.8282   -4.1856 H   0  0  0  0  0  0  0  0  0  0  0  0
    1.2194   -1.1527   -4.3613 H   0  0  0  0  0  0  0  0  0  0  0  0
    2.0631    1.1961   -3.8604 H   0  0  0  0  0  0  0  0  0  0  0  0
    2.9857    1.5324   -2.3926 H   0  0  0  0  0  0  0  0  0  0  0  0
    3.7134    0.5908   -3.6965 H   0  0  0  0  0  0  0  0  0  0  0  0
   -2.0567    1.1914    3.8606 H   0  0  0  0  0  0  0  0  0  0  0  0
   -2.9819    1.5295    2.3948 H   0  0  0  0  0  0  0  0  0  0  0  0
   -3.7073    0.5864    3.6989 H   0  0  0  0  0  0  0  0  0  0  0  0
   -1.5044   -2.4729    3.2073 H   0  0  0  0  0  0  0  0  0  0  0  0
   -1.2123   -1.1583    4.3571 H   0  0  0  0  0  0  0  0  0  0  0  0
   -2.8367   -1.8332    4.1834 H   0  0  0  0  0  0  0  0  0  0  0  0
    6.2517   -2.2917   -1.0658 H   0  0  0  0  0  0  0  0  0  0  0  0
   -6.2504   -2.2928    1.0688 H   0  0  0  0  0  0  0  0  0  0  0  0
    4.5967    2.7726    0.6912 H   0  0  0  0  0  0  0  0  0  0  0  0
   -4.5971    2.7749   -0.6882 H   0  0  0  0  0  0  0  0  0  0  0  0
    3.4488    4.9587    0.5112 H   0  0  0  0  0  0  0  0  0  0  0  0
   -3.4487    4.9604   -0.5038 H   0  0  0  0  0  0  0  0  0  0  0  0
  1  3  1  0  0  0  0
  1  5  1  0  0  0  0
  1 41  1  0  0  0  0
  2  4  1  0  0  0  0
  2  6  1  0  0  0  0
  2 42  1  0  0  0  0
  3  4  2  0  0  0  0
  3  7  1  0  0  0  0
  4  8  1  0  0  0  0
  5  9  2  0  0  0  0
  5 11  1  0  0  0  0
  6 10  2  0  0  0  0
  6 12  1  0  0  0  0
  7 13  1  0  0  0  0
  7 23  2  0  0  0  0
  8 14  1  0  0  0  0
  8 24  2  0  0  0  0
  9 15  1  0  0  0  0
  9 19  1  0  0  0  0
 10 16  1  0  0  0  0
 10 20  1  0  0  0  0
 11 17  1  0  0  0  0
 11 21  2  0  0  0  0
 12 18  1  0  0  0  0
 12 22  2  0  0  0  0
 13 14  1  0  0  0  0
 13 25  2  0  0  0  0
 14 26  2  0  0  0  0
 15 27  1  0  0  0  0
 15 28  1  0  0  0  0
 15 43  1  0  0  0  0
 16 29  1  0  0  0  0
 16 30  1  0  0  0  0
 16 44  1  0  0  0  0
 17 31  1  0  0  0  0
 17 32  1  0  0  0  0
 17 45  1  0  0  0  0
 18 33  1  0  0  0  0
 18 34  1  0  0  0  0
 18 46  1  0  0  0  0
 19 35  2  0  0  0  0
 19 47  1  0  0  0  0
 20 36  2  0  0  0  0
 20 48  1  0  0  0  0
 21 35  1  0  0  0  0
 21 49  1  0  0  0  0
 22 36  1  0  0  0  0
 22 50  1  0  0  0  0
 23 37  1  0  0  0  0
 23 51  1  0  0  0  0
 24 38  1  0  0  0  0
 24 52  1  0  0  0  0
 25 39  1  0  0  0  0
 25 53  1  0  0  0  0
 26 40  1  0  0  0  0
 26 54  1  0  0  0  0
 27 55  1  0  0  0  0
 27 56  1  0  0  0  0
 27 57  1  0  0  0  0
 28 58  1  0  0  0  0
 28 59  1  0  0  0  0
 28 60  1  0  0  0  0
 29 61  1  0  0  0  0
 29 62  1  0  0  0  0
 29 63  1  0  0  0  0
 30 64  1  0  0  0  0
 30 65  1  0  0  0  0
 30 66  1  0  0  0  0
 31 67  1  0  0  0  0
 31 68  1  0  0  0  0
 31 69  1  0  0  0  0
 32 70  1  0  0  0  0
 32 71  1  0  0  0  0
 32 72  1  0  0  0  0
 33 73  1  0  0  0  0
 33 74  1  0  0  0  0
 33 75  1  0  0  0  0
 34 76  1  0  0  0  0
 34 77  1  0  0  0  0
 34 78  1  0  0  0  0
 35 79  1  0  0  0  0
 36 80  1  0  0  0  0
 37 39  2  0  0  0  0
 37 81  1  0  0  0  0
 38 40  2  0  0  0  0
 38 82  1  0  0  0  0
 39 83  1  0  0  0  0
 40 84  1  0  0  0  0
M  END
> <PUBCHEM_COMPOUND_CID>
102434445

> <PUBCHEM_CONFORMER_RMSD>
1

> <PUBCHEM_CONFORMER_DIVERSEORDER>
1
8
4
2
3
7
5
6

> <PUBCHEM_MMFF94_PARTIAL_CHARGES>
44
1 -0.6
10 -0.14
11 -0.14
12 -0.14
15 0.14
16 0.14
17 0.14
18 0.14
19 -0.15
2 -0.6
20 -0.15
21 -0.15
22 -0.15
23 -0.15
24 -0.15
25 -0.15
26 -0.15
3 0.1
35 -0.15
36 -0.15
37 -0.15
38 -0.15
39 -0.15
4 0.1
40 -0.15
41 0.4
42 0.4
47 0.15
48 0.15
49 0.15
5 0.1
50 0.15
51 0.15
52 0.15
53 0.15
54 0.15
6 0.1
79 0.15
80 0.15
81 0.15
82 0.15
83 0.15
84 0.15
9 -0.14

> <PUBCHEM_EFFECTIVE_ROTOR_COUNT>
8

> <PUBCHEM_PHARMACOPHORE_FEATURES>
13
1 1 cation
1 1 donor
1 2 cation
1 2 donor
3 15 27 28 hydrophobe
3 16 29 30 hydrophobe
3 17 31 32 hydrophobe
3 18 33 34 hydrophobe
6 3 4 7 8 13 14 rings
6 5 9 11 19 21 35 rings
6 6 10 12 20 22 36 rings
6 7 13 23 25 37 39 rings
6 8 14 24 26 38 40 rings

> <PUBCHEM_HEAVY_ATOM_COUNT>
40

> <PUBCHEM_ATOM_DEF_STEREO_COUNT>
0

> <PUBCHEM_ATOM_UDEF_STEREO_COUNT>
0

> <PUBCHEM_BOND_DEF_STEREO_COUNT>
0

> <PUBCHEM_BOND_UDEF_STEREO_COUNT>
0

> <PUBCHEM_ISOTOPIC_ATOM_COUNT>
0

> <PUBCHEM_COMPONENT_COUNT>
1

> <PUBCHEM_CACTVS_TAUTO_COUNT>
998

> <PUBCHEM_CONFORMER_ID>
061B068D00000001

> <PUBCHEM_MMFF94_ENERGY>
198.4799

> <PUBCHEM_FEATURE_SELFOVERLAP>
66.031

> <PUBCHEM_SHAPE_FINGERPRINT>
12160290 23 18051126995402473309
12553582 1 18410852165894306531
12788726 201 18114758022983299699
13140716 1 18410857616376402625
133893 2 18197223748371077660
13692114 37 18056762023556992657
13726171 33 18052854418907803172
13911987 19 17539130962086510421
14114206 34 17822291232286793472
15219462 58 18041007266521230361
15324884 4 17630590238324353828
15815584 197 17973432488853793184
1813 80 18200049407276131543
19319366 153 17462856371720177745
20764821 26 18187646873186244593
21703447 108 18336538417014089712
23598288 3 18045521728046967691
25222932 49 17904760338373627055
460360 51 18410295821774445661
57527293 21 17989198214876852318
57527295 17 17969479633257594847
70251023 43 18411145752762804987

> <PUBCHEM_SHAPE_MULTIPOLES>
813.22
9.93
5.15
3.66
0
5.76
0.01
-7.2
0.01
0
-0.01
0
-3.48
-0.82

> <PUBCHEM_SHAPE_SELFOVERLAP>
1776.276

> <PUBCHEM_SHAPE_VOLUME>
442.3

> <PUBCHEM_COORDINATE_TYPE>
2
5
10

$$$$
