131676072
  -OEChem-02172602363D

 63 69  0     1  0  0  0  0  0999 V2000
    3.0551    1.4118   -1.1459 O   0  0  0  0  0  0  0  0  0  0  0  0
    0.3519    0.4633   -2.0660 O   0  0  0  0  0  0  0  0  0  0  0  0
   -1.4508    0.8658    0.3078 O   0  0  0  0  0  0  0  0  0  0  0  0
    1.5814    0.6602    1.4149 O   0  0  0  0  0  0  0  0  0  0  0  0
    0.9730   -1.9899    1.1774 O   0  0  0  0  0  0  0  0  0  0  0  0
   -3.6608    2.3579   -0.8279 O   0  0  0  0  0  0  0  0  0  0  0  0
    0.1704    5.1504   -1.0477 O   0  0  0  0  0  0  0  0  0  0  0  0
   -0.3644   -3.8687    0.0182 O   0  0  0  0  0  0  0  0  0  0  0  0
   -2.1412   -2.9006   -4.2727 O   0  0  0  0  0  0  0  0  0  0  0  0
    7.2588   -1.4898    2.5940 O   0  0  0  0  0  0  0  0  0  0  0  0
   -6.3730   -2.4501    2.3983 O   0  0  0  0  0  0  0  0  0  0  0  0
    0.6972    1.0553   -0.7968 C   0  0  1  0  0  0  0  0  0  0  0  0
    1.4874    0.1082    0.1074 C   0  0  1  0  0  0  0  0  0  0  0  0
    2.8586    0.0820   -0.6054 C   0  0  2  0  0  0  0  0  0  0  0  0
    1.8084    2.0196   -1.0957 C   0  0  0  0  0  0  0  0  0  0  0  0
   -0.5261    1.7386   -0.2330 C   0  0  0  0  0  0  0  0  0  0  0  0
    0.8417   -1.2597    0.2010 C   0  0  0  0  0  0  0  0  0  0  0  0
   -0.7108    3.0717   -0.2880 C   0  0  0  0  0  0  0  0  0  0  0  0
   -1.9806    3.7291    0.1778 C   0  0  0  0  0  0  0  0  0  0  0  0
    1.6739    3.3469   -1.1463 C   0  0  0  0  0  0  0  0  0  0  0  0
    4.0334   -0.3382    0.2492 C   0  0  0  0  0  0  0  0  0  0  0  0
   -2.4787    1.4608    1.1120 C   0  0  1  0  0  0  0  0  0  0  0  0
   -3.0825    2.6986    0.4333 C   0  0  2  0  0  0  0  0  0  0  0  0
    0.0418   -1.6890   -0.9601 C   0  0  0  0  0  0  0  0  0  0  0  0
   -0.1485   -0.8087   -2.0245 C   0  0  0  0  0  0  0  0  0  0  0  0
    0.3524    3.9512   -0.8613 C   0  0  0  0  0  0  0  0  0  0  0  0
   -3.5204    0.4143    1.4567 C   0  0  0  0  0  0  0  0  0  0  0  0
   -0.5143   -2.9712   -0.9962 C   0  0  0  0  0  0  0  0  0  0  0  0
    4.7165    0.6105    1.0100 C   0  0  0  0  0  0  0  0  0  0  0  0
    4.4342   -1.6740    0.2766 C   0  0  0  0  0  0  0  0  0  0  0  0
   -0.8723   -1.2239   -3.1440 C   0  0  0  0  0  0  0  0  0  0  0  0
   -1.2511   -3.3741   -2.1099 C   0  0  0  0  0  0  0  0  0  0  0  0
   -1.4267   -2.5032   -3.1843 C   0  0  0  0  0  0  0  0  0  0  0  0
    5.8002    0.2235    1.7983 C   0  0  0  0  0  0  0  0  0  0  0  0
    5.5180   -2.0611    1.0648 C   0  0  0  0  0  0  0  0  0  0  0  0
   -4.1688    0.4549    2.6911 C   0  0  0  0  0  0  0  0  0  0  0  0
   -3.8308   -0.5891    0.5388 C   0  0  0  0  0  0  0  0  0  0  0  0
    6.2009   -1.1122    1.8256 C   0  0  0  0  0  0  0  0  0  0  0  0
   -5.1272   -0.5077    3.0077 C   0  0  0  0  0  0  0  0  0  0  0  0
   -4.7891   -1.5519    0.8552 C   0  0  0  0  0  0  0  0  0  0  0  0
   -5.4372   -1.5112    2.0897 C   0  0  0  0  0  0  0  0  0  0  0  0
    2.8276   -0.5820   -1.4812 H   0  0  0  0  0  0  0  0  0  0  0  0
   -1.7640    4.2694    1.1075 H   0  0  0  0  0  0  0  0  0  0  0  0
   -2.3191    4.4597   -0.5662 H   0  0  0  0  0  0  0  0  0  0  0  0
    2.5117    4.0068   -1.3366 H   0  0  0  0  0  0  0  0  0  0  0  0
   -1.9972    1.7646    2.0531 H   0  0  0  0  0  0  0  0  0  0  0  0
   -3.8754    3.1373    1.0499 H   0  0  0  0  0  0  0  0  0  0  0  0
    2.0878    0.0440    1.9705 H   0  0  0  0  0  0  0  0  0  0  0  0
    4.4170    1.6550    1.0104 H   0  0  0  0  0  0  0  0  0  0  0  0
    3.9091   -2.4230   -0.3102 H   0  0  0  0  0  0  0  0  0  0  0  0
   -1.0108   -0.5415   -3.9794 H   0  0  0  0  0  0  0  0  0  0  0  0
   -4.0677    3.1626   -1.1918 H   0  0  0  0  0  0  0  0  0  0  0  0
   -1.6855   -4.3703   -2.1443 H   0  0  0  0  0  0  0  0  0  0  0  0
    6.3229    0.9719    2.3878 H   0  0  0  0  0  0  0  0  0  0  0  0
    5.8251   -3.1032    1.0823 H   0  0  0  0  0  0  0  0  0  0  0  0
   -3.9376    1.2330    3.4137 H   0  0  0  0  0  0  0  0  0  0  0  0
   -3.3463   -0.6358   -0.4327 H   0  0  0  0  0  0  0  0  0  0  0  0
    0.1708   -3.4924    0.7329 H   0  0  0  0  0  0  0  0  0  0  0  0
   -5.6293   -0.4704    3.9705 H   0  0  0  0  0  0  0  0  0  0  0  0
   -5.0229   -2.3273    0.1306 H   0  0  0  0  0  0  0  0  0  0  0  0
   -2.1625   -2.1737   -4.9187 H   0  0  0  0  0  0  0  0  0  0  0  0
    7.6113   -0.7071    3.0514 H   0  0  0  0  0  0  0  0  0  0  0  0
   -6.4606   -3.0653    1.6501 H   0  0  0  0  0  0  0  0  0  0  0  0
  1 14  1  0  0  0  0
  1 15  1  0  0  0  0
  2 12  1  0  0  0  0
  2 25  1  0  0  0  0
  3 16  1  0  0  0  0
  3 22  1  0  0  0  0
  4 13  1  0  0  0  0
  4 48  1  0  0  0  0
  5 17  2  0  0  0  0
  6 23  1  0  0  0  0
  6 52  1  0  0  0  0
  7 26  2  0  0  0  0
  8 28  1  0  0  0  0
  8 58  1  0  0  0  0
  9 33  1  0  0  0  0
  9 61  1  0  0  0  0
 10 38  1  0  0  0  0
 10 62  1  0  0  0  0
 11 41  1  0  0  0  0
 11 63  1  0  0  0  0
 12 13  1  0  0  0  0
 12 15  1  0  0  0  0
 12 16  1  0  0  0  0
 13 14  1  0  0  0  0
 13 17  1  0  0  0  0
 14 21  1  0  0  0  0
 14 42  1  0  0  0  0
 15 20  2  0  0  0  0
 16 18  2  0  0  0  0
 17 24  1  0  0  0  0
 18 19  1  0  0  0  0
 18 26  1  0  0  0  0
 19 23  1  0  0  0  0
 19 43  1  0  0  0  0
 19 44  1  0  0  0  0
 20 26  1  0  0  0  0
 20 45  1  0  0  0  0
 21 29  2  0  0  0  0
 21 30  1  0  0  0  0
 22 23  1  0  0  0  0
 22 27  1  0  0  0  0
 22 46  1  0  0  0  0
 23 47  1  0  0  0  0
 24 25  1  0  0  0  0
 24 28  2  0  0  0  0
 25 31  2  0  0  0  0
 27 36  2  0  0  0  0
 27 37  1  0  0  0  0
 28 32  1  0  0  0  0
 29 34  1  0  0  0  0
 29 49  1  0  0  0  0
 30 35  2  0  0  0  0
 30 50  1  0  0  0  0
 31 33  1  0  0  0  0
 31 51  1  0  0  0  0
 32 33  2  0  0  0  0
 32 53  1  0  0  0  0
 34 38  2  0  0  0  0
 34 54  1  0  0  0  0
 35 38  1  0  0  0  0
 35 55  1  0  0  0  0
 36 39  1  0  0  0  0
 36 56  1  0  0  0  0
 37 40  2  0  0  0  0
 37 57  1  0  0  0  0
 39 41  2  0  0  0  0
 39 59  1  0  0  0  0
 40 41  1  0  0  0  0
 40 60  1  0  0  0  0
M  END
> <PUBCHEM_COMPOUND_CID>
131676072

> <PUBCHEM_CONFORMER_RMSD>
0.8

> <PUBCHEM_CONFORMER_DIVERSEORDER>
1
12
10
7
6
13
11
4
14
5
3
15
2
16
9
8

> <PUBCHEM_MMFF94_PARTIAL_CHARGES>
58
1 -0.36
10 -0.53
11 -0.53
12 0.56
13 0.34
14 0.42
15 -0.06
16 -0.06
17 0.42
18 -0.12
19 0.14
2 -0.36
20 -0.14
21 -0.14
22 0.42
23 0.28
24 0.09
25 0.08
26 0.54
27 -0.14
28 0.08
29 -0.15
3 -0.36
30 -0.15
31 -0.15
32 -0.15
33 0.08
34 -0.15
35 -0.15
36 -0.15
37 -0.15
38 0.08
39 -0.15
4 -0.68
40 -0.15
41 0.08
45 0.15
48 0.4
49 0.15
5 -0.57
50 0.15
51 0.15
52 0.4
53 0.15
54 0.15
55 0.15
56 0.15
57 0.15
58 0.45
59 0.15
6 -0.68
60 0.15
61 0.45
62 0.45
63 0.45
7 -0.57
8 -0.53
9 -0.53

> <PUBCHEM_EFFECTIVE_ROTOR_COUNT>
3.4

> <PUBCHEM_PHARMACOPHORE_FEATURES>
20
1 1 acceptor
1 10 donor
1 11 donor
1 2 acceptor
1 3 acceptor
1 4 acceptor
1 4 donor
1 5 acceptor
1 6 acceptor
1 6 donor
1 7 acceptor
1 8 donor
1 9 donor
5 1 12 13 14 15 rings
6 12 15 16 18 20 26 rings
6 2 12 13 17 24 25 rings
6 21 29 30 34 35 38 rings
6 24 25 28 31 32 33 rings
6 27 36 37 39 40 41 rings
6 3 16 18 19 22 23 rings

> <PUBCHEM_HEAVY_ATOM_COUNT>
41

> <PUBCHEM_ATOM_DEF_STEREO_COUNT>
2

> <PUBCHEM_ATOM_UDEF_STEREO_COUNT>
3

> <PUBCHEM_BOND_DEF_STEREO_COUNT>
0

> <PUBCHEM_BOND_UDEF_STEREO_COUNT>
0

> <PUBCHEM_ISOTOPIC_ATOM_COUNT>
0

> <PUBCHEM_COMPONENT_COUNT>
1

> <PUBCHEM_CACTVS_TAUTO_COUNT>
48

> <PUBCHEM_CONFORMER_ID>
07D937A800000001

> <PUBCHEM_MMFF94_ENERGY>
116.9341

> <PUBCHEM_FEATURE_SELFOVERLAP>
101.906

> <PUBCHEM_SHAPE_FINGERPRINT>
10653451 467 17769951077396942606
11007060 377 17631145555820346144
11115154 58 16768970269042154951
11445158 3 17677055749795859102
1200032 147 12391528451139243027
12202916 173 18192982739461790037
12422481 6 18129672902039802810
131258 38 17390795826808161347
140371 6 18047199552954147293
14068700 675 17749113305083615987
14856354 85 17823987719442733960
15297060 5 16482522136703144271
15324884 4 17912939287323085493
15775530 1 17116640943607283412
15815584 197 18196948664574625391
16114785 44 18126257823587922626
16728300 4 18113896035404737451
19319366 153 17610366082867134364
1979834 28 17843996722197136259
20771845 140 17344377607981486963
21033648 29 17703793557437853360
23569914 152 8285109863389253688
25222932 49 17396735406492145331
255183 313 18059848450604252770
376196 1 17041172668937691492
392239 28 17561080310868802377
469060 322 18340474638898399175
484985 159 16734655374231849832
563151 248 17917710206163688982
563151 74 17058097576120089089
57527358 35 17313393361167021413
57527452 28 17273103901104010757
9896288 288 18121492454626397632

> <PUBCHEM_SHAPE_MULTIPOLES>
779.2
11.61
4.98
3.2
8.16
3.12
-1.2
-6.34
15.01
-2.27
-3.16
-2.2
-2.79
-1.36

> <PUBCHEM_SHAPE_SELFOVERLAP>
1781.847

> <PUBCHEM_SHAPE_VOLUME>
398.8

> <PUBCHEM_COORDINATE_TYPE>
2
5
10

$$$$
