11451554
  -OEChem-02172602473D

 52 53  0     0  0  0  0  0  0999 V2000
   -3.7793    0.0779   -1.9339 O   0  0  0  0  0  0  0  0  0  0  0  0
   -2.6332   -1.6328    2.3900 O   0  0  0  0  0  0  0  0  0  0  0  0
   -4.4917   -0.4954    0.6803 O   0  0  0  0  0  0  0  0  0  0  0  0
    1.1535    4.2982    1.1575 O   0  0  0  0  0  0  0  0  0  0  0  0
    3.9931   -3.2503    0.1570 O   0  0  0  0  0  0  0  0  0  0  0  0
    4.1197   -1.0616   -0.6289 N   0  0  0  0  0  0  0  0  0  0  0  0
    1.7670   -0.8016   -1.0859 C   0  0  0  0  0  0  0  0  0  0  0  0
    1.6084    0.5218   -0.5037 C   0  0  0  0  0  0  0  0  0  0  0  0
    3.1263   -1.1617   -1.6635 C   0  0  0  0  0  0  0  0  0  0  0  0
   -0.6666   -1.3342   -0.6654 C   0  0  0  0  0  0  0  0  0  0  0  0
    0.6885   -1.6314   -1.1422 C   0  0  0  0  0  0  0  0  0  0  0  0
   -1.0103   -1.6271    0.6478 C   0  0  0  0  0  0  0  0  0  0  0  0
   -1.5884   -0.7639   -1.5334 C   0  0  0  0  0  0  0  0  0  0  0  0
   -2.8769   -0.4815   -1.0800 C   0  0  0  0  0  0  0  0  0  0  0  0
   -2.2989   -1.3447    1.1011 C   0  0  0  0  0  0  0  0  0  0  0  0
    1.2468    1.6000   -1.3114 C   0  0  0  0  0  0  0  0  0  0  0  0
    1.8172    0.7126    0.8621 C   0  0  0  0  0  0  0  0  0  0  0  0
   -3.2322   -0.7718    0.2372 C   0  0  0  0  0  0  0  0  0  0  0  0
    1.0940    2.8692   -0.7532 C   0  0  0  0  0  0  0  0  0  0  0  0
    1.6643    1.9819    1.4203 C   0  0  0  0  0  0  0  0  0  0  0  0
    1.3027    3.0601    0.6126 C   0  0  0  0  0  0  0  0  0  0  0  0
    4.4711   -2.1196    0.1985 C   0  0  0  0  0  0  0  0  0  0  0  0
    5.5538   -1.7507    1.1769 C   0  0  0  0  0  0  0  0  0  0  0  0
   -3.8288    1.5024   -1.9823 C   0  0  0  0  0  0  0  0  0  0  0  0
   -2.4121   -0.6116    3.3606 C   0  0  0  0  0  0  0  0  0  0  0  0
   -5.5704   -1.1403    0.0072 C   0  0  0  0  0  0  0  0  0  0  0  0
    0.7824    5.3560    0.2747 C   0  0  0  0  0  0  0  0  0  0  0  0
    3.3992   -0.4662   -2.4642 H   0  0  0  0  0  0  0  0  0  0  0  0
    3.1294   -2.1773   -2.0737 H   0  0  0  0  0  0  0  0  0  0  0  0
    0.7990   -2.6134   -1.5973 H   0  0  0  0  0  0  0  0  0  0  0  0
   -0.2876   -2.0752    1.3259 H   0  0  0  0  0  0  0  0  0  0  0  0
   -1.3181   -0.5365   -2.5620 H   0  0  0  0  0  0  0  0  0  0  0  0
    1.0810    1.4670   -2.3780 H   0  0  0  0  0  0  0  0  0  0  0  0
    2.0967   -0.1168    1.5075 H   0  0  0  0  0  0  0  0  0  0  0  0
    4.5812   -0.1652   -0.5022 H   0  0  0  0  0  0  0  0  0  0  0  0
    0.8115    3.6617   -1.4376 H   0  0  0  0  0  0  0  0  0  0  0  0
    1.8272    2.1242    2.4851 H   0  0  0  0  0  0  0  0  0  0  0  0
    5.3105   -0.8065    1.6728 H   0  0  0  0  0  0  0  0  0  0  0  0
    6.5048   -1.6499    0.6471 H   0  0  0  0  0  0  0  0  0  0  0  0
    5.6450   -2.5314    1.9370 H   0  0  0  0  0  0  0  0  0  0  0  0
   -2.8681    1.9080   -2.3153 H   0  0  0  0  0  0  0  0  0  0  0  0
   -4.0901    1.9128   -1.0019 H   0  0  0  0  0  0  0  0  0  0  0  0
   -4.6000    1.7942   -2.7003 H   0  0  0  0  0  0  0  0  0  0  0  0
   -1.3490   -0.3555    3.4125 H   0  0  0  0  0  0  0  0  0  0  0  0
   -3.0019    0.2795    3.1235 H   0  0  0  0  0  0  0  0  0  0  0  0
   -2.7286   -0.9912    4.3359 H   0  0  0  0  0  0  0  0  0  0  0  0
   -5.9910   -0.4744   -0.7514 H   0  0  0  0  0  0  0  0  0  0  0  0
   -6.3513   -1.3475    0.7448 H   0  0  0  0  0  0  0  0  0  0  0  0
   -5.2680   -2.0914   -0.4452 H   0  0  0  0  0  0  0  0  0  0  0  0
    0.7086    6.2680    0.8760 H   0  0  0  0  0  0  0  0  0  0  0  0
    1.5513    5.5348   -0.4845 H   0  0  0  0  0  0  0  0  0  0  0  0
   -0.2049    5.1835   -0.1670 H   0  0  0  0  0  0  0  0  0  0  0  0
  1 14  1  0  0  0  0
  1 24  1  0  0  0  0
  2 15  1  0  0  0  0
  2 25  1  0  0  0  0
  3 18  1  0  0  0  0
  3 26  1  0  0  0  0
  4 21  1  0  0  0  0
  4 27  1  0  0  0  0
  5 22  2  0  0  0  0
  6  9  1  0  0  0  0
  6 22  1  0  0  0  0
  6 35  1  0  0  0  0
  7  8  1  0  0  0  0
  7  9  1  0  0  0  0
  7 11  2  0  0  0  0
  8 16  2  0  0  0  0
  8 17  1  0  0  0  0
  9 28  1  0  0  0  0
  9 29  1  0  0  0  0
 10 11  1  0  0  0  0
 10 12  2  0  0  0  0
 10 13  1  0  0  0  0
 11 30  1  0  0  0  0
 12 15  1  0  0  0  0
 12 31  1  0  0  0  0
 13 14  2  0  0  0  0
 13 32  1  0  0  0  0
 14 18  1  0  0  0  0
 15 18  2  0  0  0  0
 16 19  1  0  0  0  0
 16 33  1  0  0  0  0
 17 20  2  0  0  0  0
 17 34  1  0  0  0  0
 19 21  2  0  0  0  0
 19 36  1  0  0  0  0
 20 21  1  0  0  0  0
 20 37  1  0  0  0  0
 22 23  1  0  0  0  0
 23 38  1  0  0  0  0
 23 39  1  0  0  0  0
 23 40  1  0  0  0  0
 24 41  1  0  0  0  0
 24 42  1  0  0  0  0
 24 43  1  0  0  0  0
 25 44  1  0  0  0  0
 25 45  1  0  0  0  0
 25 46  1  0  0  0  0
 26 47  1  0  0  0  0
 26 48  1  0  0  0  0
 26 49  1  0  0  0  0
 27 50  1  0  0  0  0
 27 51  1  0  0  0  0
 27 52  1  0  0  0  0
M  END
> <PUBCHEM_COMPOUND_CID>
11451554

> <PUBCHEM_CONFORMER_RMSD>
1

> <PUBCHEM_CONFORMER_DIVERSEORDER>
1
19
20
18
14
5
9
16
4
11
7
12
17
6
15
3
10
13
2
8

> <PUBCHEM_MMFF94_PARTIAL_CHARGES>
35
1 -0.36
10 0.03
11 -0.18
12 -0.15
13 -0.15
14 0.08
15 0.08
16 -0.15
17 -0.15
18 0.08
19 -0.15
2 -0.36
20 -0.15
21 0.08
22 0.57
23 0.06
24 0.28
25 0.28
26 0.28
27 0.28
3 -0.36
30 0.15
31 0.15
32 0.15
33 0.15
34 0.15
35 0.37
36 0.15
37 0.15
4 -0.36
5 -0.57
6 -0.73
7 -0.17
8 0.03
9 0.44

> <PUBCHEM_EFFECTIVE_ROTOR_COUNT>
9

> <PUBCHEM_PHARMACOPHORE_FEATURES>
8
1 1 acceptor
1 2 acceptor
1 3 acceptor
1 4 acceptor
1 5 acceptor
1 6 donor
6 10 12 13 14 15 18 rings
6 8 16 17 19 20 21 rings

> <PUBCHEM_HEAVY_ATOM_COUNT>
27

> <PUBCHEM_ATOM_DEF_STEREO_COUNT>
0

> <PUBCHEM_ATOM_UDEF_STEREO_COUNT>
0

> <PUBCHEM_BOND_DEF_STEREO_COUNT>
1

> <PUBCHEM_BOND_UDEF_STEREO_COUNT>
0

> <PUBCHEM_ISOTOPIC_ATOM_COUNT>
0

> <PUBCHEM_COMPONENT_COUNT>
1

> <PUBCHEM_CACTVS_TAUTO_COUNT>
2

> <PUBCHEM_CONFORMER_ID>
00AEBCA200000001

> <PUBCHEM_MMFF94_ENERGY>
116.5344

> <PUBCHEM_FEATURE_SELFOVERLAP>
40.608

> <PUBCHEM_SHAPE_FINGERPRINT>
10165383 225 17328907633037210445
10366900 7 17967822673518882791
1100329 8 16465856443708446862
11640471 11 17344357901922108421
12156800 1 17404825221484409528
12160290 23 17623593955474066860
12166972 35 17989197179404358755
12293681 4 18194961829830844669
12403259 226 18334010614486548735
12549972 3 17968375753336407585
12633257 1 18194714572827225203
12788726 201 18192138301525131402
13134695 92 18412545427054514868
133893 2 18057892535334778164
13583140 156 18193006030178028811
15295992 7 18334866047470529419
15420108 30 17487039305919443654
17349148 13 17489586774823054175
17980427 23 16200138920016298586
1813 80 18129956597999843982
21703447 108 17976254960772371986
23175994 123 18336554832474085774
23559900 14 17531248421988565135
3380486 145 18272080553169422430
345986 75 17970617503164530042
35225 105 16660655046602000881
5895379 119 15553074097960893648
6086070 43 18263908991905565269
7226269 152 18119521042809022308
7288768 16 16832091169385869440
81228 2 17978805514842959990
9981440 41 17474922785927809321

> <PUBCHEM_SHAPE_MULTIPOLES>
521.32
8.97
4.58
2.24
1.6
8.12
-1.19
-7.47
-0.46
-4.72
-1.13
1.81
-0.3
1.27

> <PUBCHEM_SHAPE_SELFOVERLAP>
1095.396

> <PUBCHEM_SHAPE_VOLUME>
295.9

> <PUBCHEM_COORDINATE_TYPE>
2
5
10

$$$$
