114757
  -OEChem-02172602493D

 32 32  0     0  0  0  0  0  0999 V2000
    7.0320    1.7982    0.3953 S   0  0  0  0  0  0  0  0  0  0  0  0
    4.7025    0.4765   -0.3011 N   0  0  0  0  0  0  0  0  0  0  0  0
    0.6888   -1.3078   -0.3469 C   0  0  0  0  0  0  0  0  0  0  0  0
   -0.5510   -0.4478   -0.0826 C   0  0  0  0  0  0  0  0  0  0  0  0
    1.9620   -0.6076    0.1345 C   0  0  0  0  0  0  0  0  0  0  0  0
   -1.8541   -1.1218   -0.5266 C   0  0  0  0  0  0  0  0  0  0  0  0
    3.2045   -1.4540   -0.1573 C   0  0  0  0  0  0  0  0  0  0  0  0
   -3.0929   -0.3236   -0.2067 C   0  0  0  0  0  0  0  0  0  0  0  0
    4.4851   -0.8100    0.3627 C   0  0  0  0  0  0  0  0  0  0  0  0
   -3.7313   -0.5153    1.0094 C   0  0  0  0  0  0  0  0  0  0  0  0
   -3.5732    0.5893   -1.1336 C   0  0  0  0  0  0  0  0  0  0  0  0
   -4.8770    0.2230    1.3055 C   0  0  0  0  0  0  0  0  0  0  0  0
   -4.7188    1.3278   -0.8372 C   0  0  0  0  0  0  0  0  0  0  0  0
   -5.3708    1.1446    0.3823 C   0  0  0  0  0  0  0  0  0  0  0  0
    5.6942    1.0284    0.0022 C   0  0  0  0  0  0  0  0  0  0  0  0
    0.7645   -1.5172   -1.4208 H   0  0  0  0  0  0  0  0  0  0  0  0
    0.5827   -2.2717    0.1651 H   0  0  0  0  0  0  0  0  0  0  0  0
   -0.4448    0.5148   -0.5991 H   0  0  0  0  0  0  0  0  0  0  0  0
   -0.6074   -0.2198    0.9897 H   0  0  0  0  0  0  0  0  0  0  0  0
    1.8909   -0.4186    1.2126 H   0  0  0  0  0  0  0  0  0  0  0  0
    2.0467    0.3670   -0.3604 H   0  0  0  0  0  0  0  0  0  0  0  0
   -1.8168   -1.3172   -1.6065 H   0  0  0  0  0  0  0  0  0  0  0  0
   -1.9348   -2.1109   -0.0565 H   0  0  0  0  0  0  0  0  0  0  0  0
    3.2887   -1.6138   -1.2393 H   0  0  0  0  0  0  0  0  0  0  0  0
    3.0921   -2.4412    0.3068 H   0  0  0  0  0  0  0  0  0  0  0  0
    4.4112   -0.6774    1.4505 H   0  0  0  0  0  0  0  0  0  0  0  0
    5.3232   -1.4919    0.1652 H   0  0  0  0  0  0  0  0  0  0  0  0
   -3.3533   -1.2289    1.7359 H   0  0  0  0  0  0  0  0  0  0  0  0
   -3.0713    0.7405   -2.0850 H   0  0  0  0  0  0  0  0  0  0  0  0
   -5.3843    0.0810    2.2552 H   0  0  0  0  0  0  0  0  0  0  0  0
   -5.1031    2.0459   -1.5558 H   0  0  0  0  0  0  0  0  0  0  0  0
   -6.2627    1.7198    0.6130 H   0  0  0  0  0  0  0  0  0  0  0  0
  1 15  2  0  0  0  0
  2  9  1  0  0  0  0
  2 15  2  0  0  0  0
  3  4  1  0  0  0  0
  3  5  1  0  0  0  0
  3 16  1  0  0  0  0
  3 17  1  0  0  0  0
  4  6  1  0  0  0  0
  4 18  1  0  0  0  0
  4 19  1  0  0  0  0
  5  7  1  0  0  0  0
  5 20  1  0  0  0  0
  5 21  1  0  0  0  0
  6  8  1  0  0  0  0
  6 22  1  0  0  0  0
  6 23  1  0  0  0  0
  7  9  1  0  0  0  0
  7 24  1  0  0  0  0
  7 25  1  0  0  0  0
  8 10  2  0  0  0  0
  8 11  1  0  0  0  0
  9 26  1  0  0  0  0
  9 27  1  0  0  0  0
 10 12  1  0  0  0  0
 10 28  1  0  0  0  0
 11 13  2  0  0  0  0
 11 29  1  0  0  0  0
 12 14  2  0  0  0  0
 12 30  1  0  0  0  0
 13 14  1  0  0  0  0
 13 31  1  0  0  0  0
 14 32  1  0  0  0  0
M  END
> <PUBCHEM_COMPOUND_CID>
114757

> <PUBCHEM_CONFORMER_RMSD>
0.8

> <PUBCHEM_CONFORMER_DIVERSEORDER>
1
82
63
41
107
3
95
73
134
136
46
78
45
19
48
52
22
6
31
15
24
101
39
75
109
99
58
50
128
8
51
106
67
79
25
89
4
81
93
121
35
20
23
13
97
16
110
135
61
69
105
56
5
11
12
138
72
34
104
113
68
86
94
27
7
112
9
70
116
130
38
108
118
129
32
44
137
64
2
59
55
49
28
92
83
33
10
123
80
98
43
62
90
84
21
40
26
111
37
42
100
117
132
17
96
74
125
57
131
14
122
103
77
60
85
53
114
119
54
18
115
29
126
102
65
47
139
71
87
30
66
88
76
124
36
127
133
120
91

> <PUBCHEM_MMFF94_PARTIAL_CHARGES>
16
1 -0.27
10 -0.15
11 -0.15
12 -0.15
13 -0.15
14 -0.15
15 0.57
2 -0.55
28 0.15
29 0.15
30 0.15
31 0.15
32 0.15
6 0.14
8 -0.14
9 0.25

> <PUBCHEM_EFFECTIVE_ROTOR_COUNT>
7

> <PUBCHEM_PHARMACOPHORE_FEATURES>
4
1 1 acceptor
1 2 acceptor
5 3 4 5 6 7 hydrophobe
6 8 10 11 12 13 14 rings

> <PUBCHEM_HEAVY_ATOM_COUNT>
15

> <PUBCHEM_ATOM_DEF_STEREO_COUNT>
0

> <PUBCHEM_ATOM_UDEF_STEREO_COUNT>
0

> <PUBCHEM_BOND_DEF_STEREO_COUNT>
0

> <PUBCHEM_BOND_UDEF_STEREO_COUNT>
0

> <PUBCHEM_ISOTOPIC_ATOM_COUNT>
0

> <PUBCHEM_COMPONENT_COUNT>
1

> <PUBCHEM_CACTVS_TAUTO_COUNT>
1

> <PUBCHEM_CONFORMER_ID>
0001C04500000001

> <PUBCHEM_MMFF94_ENERGY>
19.8722

> <PUBCHEM_FEATURE_SELFOVERLAP>
20.302

> <PUBCHEM_SHAPE_FINGERPRINT>
10 15 17967816067584446336
10014705 185 18412539908021844751
100836 57 18342177773851310766
106641 1 18408892858671118483
117890 112 18409166602073628172
11858739 19 9727634990540300114
12555020 224 10159695789572272109
12596602 18 17894911814964400209
13167372 99 18412543176913826736
13668630 136 9655577409413966136
13862211 1 11458427942069550280
13955234 65 18261952921923608994
14123256 34 8142093091534341744
14455015 7 9367343751775014262
14528608 73 16415471662646383282
14848160 23 9583516503897879878
15048467 5 18343020004153413776
15183329 4 14045750304976888452
15188451 53 15357985611378295251
15348495 7 17386010610975963416
15501527 16 18410575093258294766
15716309 27 12973602240171612988
17834072 8 12751240302825974060
17870717 6 13183018523527885797
18222031 100 12103847852487167410
18785283 64 17096381698888753948
200 152 8070022264348805351
20281389 69 18408321081900520392
20398071 356 10665493103392460128
20526848 3 18341053008280415208
20621476 21 12031491246804750325
20645477 56 18334856112704960271
21150785 3 17346592010591318077
22061861 79 10952048944466370968
23402539 116 11025794293179972999
23402655 69 17917708020230479118
23590187 198 11818994084495668680
25122255 55 9223230784266335264
2767999 5 18131062745415187856
2916195 48 18260546731811848466
293599 30 18342458166707363366
300161 21 18342735226320608654
312425 54 16153704284901869632
465052 167 7925912599980382232
49783359 22 12251899300231412430
5104073 3 17458623346252538649
5364581 5 17533227589646477580
542803 24 17561363963314861975
543368 44 18060700614965095689
559249 180 10665218259770900943
57483677 66 9511455615482846868
90127 26 18262524680057829647
960060 61 15339124528980997286

> <PUBCHEM_SHAPE_MULTIPOLES>
307.56
17.85
1.63
1
19.63
0.23
0.09
11.31
2.49
1.51
-0.08
-1.3
0.11
0.53

> <PUBCHEM_SHAPE_SELFOVERLAP>
600.066

> <PUBCHEM_SHAPE_VOLUME>
185.1

> <PUBCHEM_COORDINATE_TYPE>
2
5
10

$$$$
