5319226
  -OEChem-02172602383D

 84 87  0     1  0  0  0  0  0999 V2000
    0.4083   -0.5508   -1.3116 O   0  0  0  0  0  0  0  0  0  0  0  0
   -2.2915    2.0955    2.0103 O   0  0  0  0  0  0  0  0  0  0  0  0
    5.9905   -3.4009    0.6353 O   0  0  0  0  0  0  0  0  0  0  0  0
   -4.8969    1.1313    1.9739 O   0  0  0  0  0  0  0  0  0  0  0  0
    4.9059    2.6274   -1.8002 O   0  0  0  0  0  0  0  0  0  0  0  0
    7.2610   -1.4291   -0.8342 O   0  0  0  0  0  0  0  0  0  0  0  0
   -7.6101    0.4718   -1.5321 O   0  0  0  0  0  0  0  0  0  0  0  0
   -0.0435    0.6204    0.7879 C   0  0  1  0  0  0  0  0  0  0  0  0
    0.6356    0.6900   -0.6051 C   0  0  1  0  0  0  0  0  0  0  0  0
   -1.5353    0.5197    0.3767 C   0  0  2  0  0  0  0  0  0  0  0  0
    2.8071   -0.2481    0.3899 C   0  0  2  0  0  0  0  0  0  0  0  0
    4.3345    0.0419    0.6713 C   0  0  2  0  0  0  0  0  0  0  0  0
    0.4836   -0.6196    1.5296 C   0  0  0  0  0  0  0  0  0  0  0  0
    2.1389    0.8226   -0.4870 C   0  0  0  0  0  0  0  0  0  0  0  0
   -0.2186    1.7401   -1.3313 C   0  0  0  0  0  0  0  0  0  0  0  0
   -1.6539    1.4926   -0.8190 C   0  0  0  0  0  0  0  0  0  0  0  0
    2.0103   -0.5551    1.6959 C   0  0  0  0  0  0  0  0  0  0  0  0
    5.0314    0.5334   -0.6274 C   0  0  1  0  0  0  0  0  0  0  0  0
   -2.5623    0.7962    1.4671 C   0  0  2  0  0  0  0  0  0  0  0  0
    0.2072    1.8899    1.6474 C   0  0  0  0  0  0  0  0  0  0  0  0
    5.0743   -1.2301    1.1769 C   0  0  0  0  0  0  0  0  0  0  0  0
    2.8236    1.7451   -1.1793 C   0  0  0  0  0  0  0  0  0  0  0  0
    5.1833   -0.5633   -1.6970 C   0  0  0  0  0  0  0  0  0  0  0  0
    4.5177    1.1350    1.7593 C   0  0  0  0  0  0  0  0  0  0  0  0
    4.3027    1.7233   -1.2239 C   0  0  0  0  0  0  0  0  0  0  0  0
    5.2263   -2.3181    0.1090 C   0  0  1  0  0  0  0  0  0  0  0  0
   -4.0157    0.7673    0.9087 C   0  0  1  0  0  0  0  0  0  0  0  0
    5.9143   -1.7886   -1.1492 C   0  0  2  0  0  0  0  0  0  0  0  0
   -2.3794   -0.2081    2.6143 C   0  0  0  0  0  0  0  0  0  0  0  0
   -4.4545   -0.6024    0.3471 C   0  0  0  0  0  0  0  0  0  0  0  0
   -5.9193   -0.6767   -0.1784 C   0  0  2  0  0  0  0  0  0  0  0  0
   -6.2845   -2.1023   -0.7172 C   0  0  0  0  0  0  0  0  0  0  0  0
   -6.2274    0.4624   -1.1909 C   0  0  1  0  0  0  0  0  0  0  0  0
   -6.0696   -3.1902    0.3450 C   0  0  0  0  0  0  0  0  0  0  0  0
   -7.6970   -2.2327   -1.2926 C   0  0  0  0  0  0  0  0  0  0  0  0
   -5.3969    0.4098   -2.4692 C   0  0  0  0  0  0  0  0  0  0  0  0
   -1.7063   -0.4945   -0.0090 H   0  0  0  0  0  0  0  0  0  0  0  0
    2.7419   -1.1650   -0.2104 H   0  0  0  0  0  0  0  0  0  0  0  0
    0.2209   -1.5395    0.9932 H   0  0  0  0  0  0  0  0  0  0  0  0
    0.0749   -0.7252    2.5337 H   0  0  0  0  0  0  0  0  0  0  0  0
    0.0856    2.7620   -1.0779 H   0  0  0  0  0  0  0  0  0  0  0  0
   -0.1817    1.6381   -2.4215 H   0  0  0  0  0  0  0  0  0  0  0  0
   -2.2564    1.0392   -1.6119 H   0  0  0  0  0  0  0  0  0  0  0  0
   -2.1130    2.4542   -0.5718 H   0  0  0  0  0  0  0  0  0  0  0  0
    2.3453   -1.5145    2.1073 H   0  0  0  0  0  0  0  0  0  0  0  0
    2.2237    0.1920    2.4657 H   0  0  0  0  0  0  0  0  0  0  0  0
    6.0369    0.8924   -0.3641 H   0  0  0  0  0  0  0  0  0  0  0  0
    1.2781    2.1139    1.7112 H   0  0  0  0  0  0  0  0  0  0  0  0
   -0.2341    2.7977    1.2248 H   0  0  0  0  0  0  0  0  0  0  0  0
   -0.1110    1.7636    2.6867 H   0  0  0  0  0  0  0  0  0  0  0  0
    6.0761   -0.9547    1.5373 H   0  0  0  0  0  0  0  0  0  0  0  0
    4.5780   -1.6542    2.0577 H   0  0  0  0  0  0  0  0  0  0  0  0
    2.3369    2.4866   -1.8021 H   0  0  0  0  0  0  0  0  0  0  0  0
    4.2038   -0.8634   -2.0883 H   0  0  0  0  0  0  0  0  0  0  0  0
    5.7428   -0.1507   -2.5465 H   0  0  0  0  0  0  0  0  0  0  0  0
    4.2632    0.7616    2.7568 H   0  0  0  0  0  0  0  0  0  0  0  0
    3.9046    2.0204    1.5647 H   0  0  0  0  0  0  0  0  0  0  0  0
    5.5620    1.4650    1.8135 H   0  0  0  0  0  0  0  0  0  0  0  0
    4.2425   -2.7238   -0.1488 H   0  0  0  0  0  0  0  0  0  0  0  0
    0.7827   -0.4579   -2.2047 H   0  0  0  0  0  0  0  0  0  0  0  0
   -4.1152    1.5506    0.1526 H   0  0  0  0  0  0  0  0  0  0  0  0
    5.9659   -2.5768   -1.9086 H   0  0  0  0  0  0  0  0  0  0  0  0
   -3.2729   -0.2367    3.2497 H   0  0  0  0  0  0  0  0  0  0  0  0
   -1.5873    0.0915    3.3051 H   0  0  0  0  0  0  0  0  0  0  0  0
   -2.2155   -1.2302    2.2594 H   0  0  0  0  0  0  0  0  0  0  0  0
   -2.7035    2.7645    1.4390 H   0  0  0  0  0  0  0  0  0  0  0  0
   -4.3587   -1.3321    1.1572 H   0  0  0  0  0  0  0  0  0  0  0  0
   -3.7803   -0.9214   -0.4535 H   0  0  0  0  0  0  0  0  0  0  0  0
   -6.5850   -0.5129    0.6814 H   0  0  0  0  0  0  0  0  0  0  0  0
    6.0582   -4.0774   -0.0599 H   0  0  0  0  0  0  0  0  0  0  0  0
   -5.7644    1.3387    1.5890 H   0  0  0  0  0  0  0  0  0  0  0  0
    7.6767   -1.1065   -1.6519 H   0  0  0  0  0  0  0  0  0  0  0  0
   -5.5909   -2.3377   -1.5358 H   0  0  0  0  0  0  0  0  0  0  0  0
   -6.0492    1.4333   -0.7193 H   0  0  0  0  0  0  0  0  0  0  0  0
   -5.0130   -3.2984    0.6063 H   0  0  0  0  0  0  0  0  0  0  0  0
   -6.6332   -2.9671    1.2569 H   0  0  0  0  0  0  0  0  0  0  0  0
   -6.3979   -4.1688   -0.0226 H   0  0  0  0  0  0  0  0  0  0  0  0
   -8.4493   -1.8376   -0.6025 H   0  0  0  0  0  0  0  0  0  0  0  0
   -7.7894   -1.7373   -2.2629 H   0  0  0  0  0  0  0  0  0  0  0  0
   -7.9456   -3.2844   -1.4768 H   0  0  0  0  0  0  0  0  0  0  0  0
   -5.6178   -0.4913   -3.0500 H   0  0  0  0  0  0  0  0  0  0  0  0
   -4.3255    0.4453   -2.2702 H   0  0  0  0  0  0  0  0  0  0  0  0
   -5.6522    1.2574   -3.1153 H   0  0  0  0  0  0  0  0  0  0  0  0
   -8.1136    0.6007   -0.7102 H   0  0  0  0  0  0  0  0  0  0  0  0
  1  9  1  0  0  0  0
  1 60  1  0  0  0  0
  2 19  1  0  0  0  0
  2 66  1  0  0  0  0
  3 26  1  0  0  0  0
  3 70  1  0  0  0  0
  4 27  1  0  0  0  0
  4 71  1  0  0  0  0
  5 25  2  0  0  0  0
  6 28  1  0  0  0  0
  6 72  1  0  0  0  0
  7 33  1  0  0  0  0
  7 84  1  0  0  0  0
  8  9  1  0  0  0  0
  8 10  1  0  0  0  0
  8 13  1  0  0  0  0
  8 20  1  0  0  0  0
  9 14  1  0  0  0  0
  9 15  1  0  0  0  0
 10 16  1  0  0  0  0
 10 19  1  0  0  0  0
 10 37  1  0  0  0  0
 11 12  1  0  0  0  0
 11 14  1  0  0  0  0
 11 17  1  0  0  0  0
 11 38  1  0  0  0  0
 12 18  1  0  0  0  0
 12 21  1  0  0  0  0
 12 24  1  0  0  0  0
 13 17  1  0  0  0  0
 13 39  1  0  0  0  0
 13 40  1  0  0  0  0
 14 22  2  0  0  0  0
 15 16  1  0  0  0  0
 15 41  1  0  0  0  0
 15 42  1  0  0  0  0
 16 43  1  0  0  0  0
 16 44  1  0  0  0  0
 17 45  1  0  0  0  0
 17 46  1  0  0  0  0
 18 23  1  0  0  0  0
 18 25  1  0  0  0  0
 18 47  1  0  0  0  0
 19 27  1  0  0  0  0
 19 29  1  0  0  0  0
 20 48  1  0  0  0  0
 20 49  1  0  0  0  0
 20 50  1  0  0  0  0
 21 26  1  0  0  0  0
 21 51  1  0  0  0  0
 21 52  1  0  0  0  0
 22 25  1  0  0  0  0
 22 53  1  0  0  0  0
 23 28  1  0  0  0  0
 23 54  1  0  0  0  0
 23 55  1  0  0  0  0
 24 56  1  0  0  0  0
 24 57  1  0  0  0  0
 24 58  1  0  0  0  0
 26 28  1  0  0  0  0
 26 59  1  0  0  0  0
 27 30  1  0  0  0  0
 27 61  1  0  0  0  0
 28 62  1  0  0  0  0
 29 63  1  0  0  0  0
 29 64  1  0  0  0  0
 29 65  1  0  0  0  0
 30 31  1  0  0  0  0
 30 67  1  0  0  0  0
 30 68  1  0  0  0  0
 31 32  1  0  0  0  0
 31 33  1  0  0  0  0
 31 69  1  0  0  0  0
 32 34  1  0  0  0  0
 32 35  1  0  0  0  0
 32 73  1  0  0  0  0
 33 36  1  0  0  0  0
 33 74  1  0  0  0  0
 34 75  1  0  0  0  0
 34 76  1  0  0  0  0
 34 77  1  0  0  0  0
 35 78  1  0  0  0  0
 35 79  1  0  0  0  0
 35 80  1  0  0  0  0
 36 81  1  0  0  0  0
 36 82  1  0  0  0  0
 36 83  1  0  0  0  0
M  END
> <PUBCHEM_COMPOUND_CID>
5319226

> <PUBCHEM_CONFORMER_RMSD>
1

> <PUBCHEM_CONFORMER_DIVERSEORDER>
1
67
119
124
103
113
101
16
71
62
88
107
45
80
28
125
12
83
68
25
94
26
75
87
32
93
108
50
115
116
97
102
58
54
70
48
37
9
69
89
15
36
112
39
13
51
79
98
104
44
46
117
38
120
82
22
78
96
99
35
118
31
24
19
72
27
2
121
92
65
86
74
34
60
77
29
23
91
85
122
100
57
30
6
109
106
56
5
55
53
47
111
20
90
3
73
42
95
76
40
11
123
81
10
63
18
21
105
114
43
33
41
14
110
64
4
49
59
8
61
52
84
66
7
17

> <PUBCHEM_MMFF94_PARTIAL_CHARGES>
25
1 -0.68
11 0.14
14 -0.28
18 0.06
19 0.28
2 -0.68
22 -0.14
25 0.49
26 0.28
27 0.28
28 0.28
3 -0.68
33 0.28
4 -0.68
5 -0.57
53 0.15
6 -0.68
60 0.4
66 0.4
7 -0.68
70 0.4
71 0.4
72 0.4
84 0.4
9 0.42

> <PUBCHEM_EFFECTIVE_ROTOR_COUNT>
7.8

> <PUBCHEM_PHARMACOPHORE_FEATURES>
18
1 1 acceptor
1 1 donor
1 2 acceptor
1 2 donor
1 3 acceptor
1 3 donor
1 4 acceptor
1 4 donor
1 5 acceptor
1 6 acceptor
1 6 donor
1 7 acceptor
1 7 donor
3 32 34 35 hydrophobe
5 8 9 10 15 16 rings
6 11 12 14 18 22 25 rings
6 12 18 21 23 26 28 rings
6 8 9 11 13 14 17 rings

> <PUBCHEM_HEAVY_ATOM_COUNT>
36

> <PUBCHEM_ATOM_DEF_STEREO_COUNT>
7

> <PUBCHEM_ATOM_UDEF_STEREO_COUNT>
5

> <PUBCHEM_BOND_DEF_STEREO_COUNT>
0

> <PUBCHEM_BOND_UDEF_STEREO_COUNT>
0

> <PUBCHEM_ISOTOPIC_ATOM_COUNT>
0

> <PUBCHEM_COMPONENT_COUNT>
1

> <PUBCHEM_CACTVS_TAUTO_COUNT>
5

> <PUBCHEM_CONFORMER_ID>
00512A3A00000001

> <PUBCHEM_MMFF94_ENERGY>
140.7738

> <PUBCHEM_FEATURE_SELFOVERLAP>
91.503

> <PUBCHEM_SHAPE_FINGERPRINT>
10 15 13686283686947533026
10693767 8 18187640250848288578
10906281 52 16371010633718752633
11475781 23 15647049408358417516
11646440 116 13183018501963762042
12166972 35 18413109480614551665
12236239 1 18413116060367130233
12422481 6 14189300391410950277
13636023 20 17895743106407124097
13782708 43 16845855685160778495
13811026 1 18336262431284852514
14340393 91 18187639177106367293
14849402 71 10303515235312669571
15064981 113 18267285557902739173
15183329 4 16515396366142509547
1577012 14 18272101495150369265
16994733 274 11169920493351483694
17349148 13 18271257048840086520
18222031 100 18261112959089288104
18608769 82 14261348085607211668
19958102 18 18412260627715627183
20028762 73 18412545379942639630
2026 5 18272646858025656135
20775438 99 17968097594576155266
21033648 29 15792020016443973896
21136928 87 10721135168863509469
21223535 225 16298928885243285671
21279426 13 17095243609727457313
21424621 283 8430315744796564149
21521239 73 18187363259431838547
21781051 124 16845304847268190918
21987483 16 16772368829318546583
22122407 14 8718534038979062526
22149856 69 13470418802818555987
22393880 68 16950572103048291722
23081809 10 18202012018378307113
23522609 53 17983893122343423721
23559900 14 17095819771311478464
23569914 152 16957006234567422799
23569943 247 18049722923866405250
23576562 1 16661503954734217510
2838139 119 16226033497430650493
3504750 166 18053669066549278624
3633792 109 18187366519417595520
392239 28 14548734032633758803
397830 11 13183016315603550269
4015057 19 18188219791948969201
4098825 35 18113333103669888885
4340502 62 12607401083731931404
439807 62 18339080514770059103
504579 68 17894915100740864557
5104073 3 13110695899378845878
5283173 99 16153420641235894621
59755656 215 16805322167353861084
6081469 158 17060046040006062773
6328613 192 13912323469313453855

> <PUBCHEM_SHAPE_MULTIPOLES>
699.78
19.95
2.67
2.24
15.4
1.57
0.41
12.83
-8.69
-0.98
-0.28
0.91
-0.69
-1.23

> <PUBCHEM_SHAPE_SELFOVERLAP>
1471.53

> <PUBCHEM_SHAPE_VOLUME>
391.6

> <PUBCHEM_COORDINATE_TYPE>
2
5
10

$$$$
