102213703
  -OEChem-02172602543D

 42 41  0     0  0  0  0  0  0999 V2000
    3.1365    2.9696   -2.6377 Br  0  0  0  0  0  0  0  0  0  0  0  0
    1.1987    3.0546    1.4299 O   0  0  0  0  0  0  0  0  0  0  0  0
   -0.0577    3.5394   -0.4046 O   0  0  0  0  0  0  0  0  0  0  0  0
    1.6477   -3.2682   -0.0902 C   0  0  0  0  0  0  0  0  0  0  0  0
    1.7531   -2.7898    1.3635 C   0  0  0  0  0  0  0  0  0  0  0  0
    0.2893   -3.8871   -0.4355 C   0  0  0  0  0  0  0  0  0  0  0  0
    3.1263   -2.1930    1.6857 C   0  0  0  0  0  0  0  0  0  0  0  0
   -2.2435    2.0068    0.5439 C   0  0  0  0  0  0  0  0  0  0  0  0
   -3.3139    1.1336    1.2057 C   0  0  0  0  0  0  0  0  0  0  0  0
   -0.9620    2.1325    1.3702 C   0  0  0  0  0  0  0  0  0  0  0  0
   -0.8801   -2.9525   -0.2842 C   0  0  0  0  0  0  0  0  0  0  0  0
   -4.5571    0.9939    0.3747 C   0  0  0  0  0  0  0  0  0  0  0  0
    0.0719    2.9835    0.6754 C   0  0  0  0  0  0  0  0  0  0  0  0
    3.4245   -1.0229    0.8472 C   0  0  0  0  0  0  0  0  0  0  0  0
   -1.7610   -2.6078   -1.2349 C   0  0  0  0  0  0  0  0  0  0  0  0
   -4.7327    0.0404   -0.5506 C   0  0  0  0  0  0  0  0  0  0  0  0
   -2.8427   -1.7153   -1.0119 C   0  0  0  0  0  0  0  0  0  0  0  0
   -3.7243   -0.9253   -0.8100 C   0  0  0  0  0  0  0  0  0  0  0  0
    3.6367   -0.0652    0.1541 C   0  0  0  0  0  0  0  0  0  0  0  0
    3.8646    1.0656   -0.6743 C   0  0  0  0  0  0  0  0  0  0  0  0
    2.9257    1.5074   -1.5164 C   0  0  0  0  0  0  0  0  0  0  0  0
    2.4288   -4.0151   -0.2794 H   0  0  0  0  0  0  0  0  0  0  0  0
    1.8317   -2.4365   -0.7806 H   0  0  0  0  0  0  0  0  0  0  0  0
    0.9887   -2.0319    1.5700 H   0  0  0  0  0  0  0  0  0  0  0  0
    1.5636   -3.6320    2.0397 H   0  0  0  0  0  0  0  0  0  0  0  0
    0.3315   -4.2670   -1.4638 H   0  0  0  0  0  0  0  0  0  0  0  0
    0.1167   -4.7572    0.2098 H   0  0  0  0  0  0  0  0  0  0  0  0
    3.9019   -2.9550    1.5464 H   0  0  0  0  0  0  0  0  0  0  0  0
    3.1511   -1.9022    2.7421 H   0  0  0  0  0  0  0  0  0  0  0  0
   -2.6553    3.0080    0.3600 H   0  0  0  0  0  0  0  0  0  0  0  0
   -1.9911    1.5968   -0.4428 H   0  0  0  0  0  0  0  0  0  0  0  0
   -3.5996    1.5797    2.1669 H   0  0  0  0  0  0  0  0  0  0  0  0
   -2.8924    0.1533    1.4587 H   0  0  0  0  0  0  0  0  0  0  0  0
   -1.1912    2.5893    2.3391 H   0  0  0  0  0  0  0  0  0  0  0  0
   -0.5327    1.1378    1.5349 H   0  0  0  0  0  0  0  0  0  0  0  0
   -1.0324   -2.5482    0.7152 H   0  0  0  0  0  0  0  0  0  0  0  0
   -5.3460    1.7252    0.5300 H   0  0  0  0  0  0  0  0  0  0  0  0
   -1.6485   -3.0104   -2.2371 H   0  0  0  0  0  0  0  0  0  0  0  0
   -5.6531    0.0000   -1.1229 H   0  0  0  0  0  0  0  0  0  0  0  0
    1.8920    3.6004    1.0012 H   0  0  0  0  0  0  0  0  0  0  0  0
    4.8281    1.5600   -0.6037 H   0  0  0  0  0  0  0  0  0  0  0  0
    1.9537    1.0366   -1.6105 H   0  0  0  0  0  0  0  0  0  0  0  0
  1 21  1  0  0  0  0
  2 13  1  0  0  0  0
  2 40  1  0  0  0  0
  3 13  2  0  0  0  0
  4  5  1  0  0  0  0
  4  6  1  0  0  0  0
  4 22  1  0  0  0  0
  4 23  1  0  0  0  0
  5  7  1  0  0  0  0
  5 24  1  0  0  0  0
  5 25  1  0  0  0  0
  6 11  1  0  0  0  0
  6 26  1  0  0  0  0
  6 27  1  0  0  0  0
  7 14  1  0  0  0  0
  7 28  1  0  0  0  0
  7 29  1  0  0  0  0
  8  9  1  0  0  0  0
  8 10  1  0  0  0  0
  8 30  1  0  0  0  0
  8 31  1  0  0  0  0
  9 12  1  0  0  0  0
  9 32  1  0  0  0  0
  9 33  1  0  0  0  0
 10 13  1  0  0  0  0
 10 34  1  0  0  0  0
 10 35  1  0  0  0  0
 11 15  2  0  0  0  0
 11 36  1  0  0  0  0
 12 16  2  0  0  0  0
 12 37  1  0  0  0  0
 14 19  3  0  0  0  0
 15 17  1  0  0  0  0
 15 38  1  0  0  0  0
 16 18  1  0  0  0  0
 16 39  1  0  0  0  0
 17 18  3  0  0  0  0
 19 20  1  0  0  0  0
 20 21  2  0  0  0  0
 20 41  1  0  0  0  0
 21 42  1  0  0  0  0
M  END
> <PUBCHEM_COMPOUND_CID>
102213703

> <PUBCHEM_CONFORMER_RMSD>
1.2

> <PUBCHEM_CONFORMER_DIVERSEORDER>
1
79
39
52
69
103
66
35
90
92
72
53
47
78
14
27
65
23
4
94
101
70
38
31
3
29
58
28
21
88
62
105
7
2
41
97
71
37
63
15
76
83
51
19
20
32
95
87
82
48
13
60
57
77
33
64
56
59
49
61
30
5
93
46
36
73
9
74
45
98
16
80
10
81
43
75
55
17
34
25
102
44
24
6
89
50
18
40
100
91
8
104
99
54
42
84
11
26
68
67
96
85
22
86
12

> <PUBCHEM_MMFF94_PARTIAL_CHARGES>
25
1 -0.11
10 0.06
11 -0.29
12 -0.29
13 0.66
14 -0.2
15 -0.09
16 -0.09
17 -0.06
18 -0.06
19 -0.06
2 -0.65
20 -0.09
21 -0.04
3 -0.57
36 0.15
37 0.15
38 0.15
39 0.15
40 0.5
41 0.15
42 0.15
6 0.14
7 0.2
9 0.14

> <PUBCHEM_EFFECTIVE_ROTOR_COUNT>
8

> <PUBCHEM_PHARMACOPHORE_FEATURES>
7
1 1 hydrophobe
1 2 acceptor
1 3 acceptor
3 2 3 13 anion
3 4 6 11 hydrophobe
3 5 7 14 hydrophobe
4 8 9 10 12 hydrophobe

> <PUBCHEM_HEAVY_ATOM_COUNT>
21

> <PUBCHEM_ATOM_DEF_STEREO_COUNT>
0

> <PUBCHEM_ATOM_UDEF_STEREO_COUNT>
0

> <PUBCHEM_BOND_DEF_STEREO_COUNT>
3

> <PUBCHEM_BOND_UDEF_STEREO_COUNT>
0

> <PUBCHEM_ISOTOPIC_ATOM_COUNT>
0

> <PUBCHEM_COMPONENT_COUNT>
1

> <PUBCHEM_CACTVS_TAUTO_COUNT>
2

> <PUBCHEM_CONFORMER_ID>
0617A84700000001

> <PUBCHEM_MMFF94_ENERGY>
7.9333

> <PUBCHEM_FEATURE_SELFOVERLAP>
35.58

> <PUBCHEM_SHAPE_FINGERPRINT>
10670039 82 18199746951685269302
11118852 30 18269835324634204274
12038231 1 18269824483915209731
12100795 323 17258209675521514650
13122387 1 17764586517024828706
14289585 56 17749962055309845364
14931854 50 18195245756859056158
17977149 70 17407137469306440318
20531524 4 17259621972633203392
20765182 5 18270379686195911866
21315764 21 17825071949080966693
3052486 1 18049436239188718600
338550 245 18196657297850401050
4409770 3 15527711272301779166
445580 8 18341896238581631707
463206 1 18410576175595582008
474144 1 18334295361837850974
6287921 2 17696480585141762675

> <PUBCHEM_SHAPE_MULTIPOLES>
426.37
8.52
5.87
1.89
4.07
1.35
-0.44
-2.19
-1.57
-2.7
-0.28
-1.38
-0.96
-3.91

> <PUBCHEM_SHAPE_SELFOVERLAP>
805.497

> <PUBCHEM_SHAPE_VOLUME>
261.1

> <PUBCHEM_COORDINATE_TYPE>
2
5
10

$$$$
