12921521
  -OEChem-02172602543D

 42 43  0     1  0  0  0  0  0999 V2000
   -3.1449    0.9355   -2.3450 Br  0  0  0  0  0  0  0  0  0  0  0  0
    2.2599    0.6157    2.0503 Br  0  0  0  0  0  0  0  0  0  0  0  0
   -0.1641    1.9620   -0.0537 P   0  0  0  0  0  0  0  0  0  0  0  0
   -0.7683    3.1730   -0.9551 O   0  0  0  0  0  0  0  0  0  0  0  0
    0.1298   -0.5335   -0.5140 O   0  0  0  0  0  0  0  0  0  0  0  0
    1.8369    3.4354    0.5565 O   0  0  0  0  0  0  0  0  0  0  0  0
   -0.6966    2.0129    1.3500 O   0  0  0  0  0  0  0  0  0  0  0  0
   -0.6745    0.5353   -0.9986 C   0  0  1  0  0  0  0  0  0  0  0  0
    1.5865    2.2568   -0.2061 C   0  0  1  0  0  0  0  0  0  0  0  0
   -2.1541    0.2542   -0.8933 C   0  0  0  0  0  0  0  0  0  0  0  0
    2.4809    1.1391    0.2610 C   0  0  0  0  0  0  0  0  0  0  0  0
   -2.7041   -0.5110    0.0687 C   0  0  0  0  0  0  0  0  0  0  0  0
    3.3928    0.6004   -0.5727 C   0  0  0  0  0  0  0  0  0  0  0  0
   -4.1270   -0.8339    0.2433 C   0  0  0  0  0  0  0  0  0  0  0  0
    4.3431   -0.4873   -0.2941 C   0  0  0  0  0  0  0  0  0  0  0  0
   -4.9171   -0.0233    1.0457 C   0  0  0  0  0  0  0  0  0  0  0  0
    5.6057   -0.1808    0.1909 C   0  0  0  0  0  0  0  0  0  0  0  0
   -4.6585   -1.9442   -0.3968 C   0  0  0  0  0  0  0  0  0  0  0  0
    3.9606   -1.8007   -0.5210 C   0  0  0  0  0  0  0  0  0  0  0  0
   -6.2678   -0.3299    1.2118 C   0  0  0  0  0  0  0  0  0  0  0  0
    6.5070   -1.2121    0.4549 C   0  0  0  0  0  0  0  0  0  0  0  0
   -6.0092   -2.2506   -0.2307 C   0  0  0  0  0  0  0  0  0  0  0  0
    4.8619   -2.8320   -0.2568 C   0  0  0  0  0  0  0  0  0  0  0  0
   -6.8138   -1.4433    0.5736 C   0  0  0  0  0  0  0  0  0  0  0  0
    6.1351   -2.5375    0.2311 C   0  0  0  0  0  0  0  0  0  0  0  0
   -0.3732    0.6794   -2.0421 H   0  0  0  0  0  0  0  0  0  0  0  0
    1.8002    2.5052   -1.2516 H   0  0  0  0  0  0  0  0  0  0  0  0
   -1.7389    3.2270   -1.0871 H   0  0  0  0  0  0  0  0  0  0  0  0
   -2.0693   -0.9129    0.8561 H   0  0  0  0  0  0  0  0  0  0  0  0
    3.4642    0.9749   -1.5928 H   0  0  0  0  0  0  0  0  0  0  0  0
   -0.0849   -1.3246   -1.0374 H   0  0  0  0  0  0  0  0  0  0  0  0
    1.6172    3.2398    1.4836 H   0  0  0  0  0  0  0  0  0  0  0  0
   -4.5037    0.8471    1.5485 H   0  0  0  0  0  0  0  0  0  0  0  0
    5.9075    0.8480    0.3692 H   0  0  0  0  0  0  0  0  0  0  0  0
   -4.0423   -2.5818   -1.0255 H   0  0  0  0  0  0  0  0  0  0  0  0
    2.9716   -2.0431   -0.9012 H   0  0  0  0  0  0  0  0  0  0  0  0
   -6.8944    0.2985    1.8379 H   0  0  0  0  0  0  0  0  0  0  0  0
    7.4983   -0.9830    0.8350 H   0  0  0  0  0  0  0  0  0  0  0  0
   -6.4346   -3.1177   -0.7276 H   0  0  0  0  0  0  0  0  0  0  0  0
    4.5725   -3.8642   -0.4310 H   0  0  0  0  0  0  0  0  0  0  0  0
   -7.8654   -1.6819    0.7027 H   0  0  0  0  0  0  0  0  0  0  0  0
    6.8368   -3.3406    0.4368 H   0  0  0  0  0  0  0  0  0  0  0  0
  1 10  1  0  0  0  0
  2 11  1  0  0  0  0
  3  4  1  0  0  0  0
  3  7  2  0  0  0  0
  3  8  1  0  0  0  0
  3  9  1  0  0  0  0
  4 28  1  0  0  0  0
  5  8  1  0  0  0  0
  5 31  1  0  0  0  0
  6  9  1  0  0  0  0
  6 32  1  0  0  0  0
  8 10  1  0  0  0  0
  8 26  1  0  0  0  0
  9 11  1  0  0  0  0
  9 27  1  0  0  0  0
 10 12  2  0  0  0  0
 11 13  2  0  0  0  0
 12 14  1  0  0  0  0
 12 29  1  0  0  0  0
 13 15  1  0  0  0  0
 13 30  1  0  0  0  0
 14 16  2  0  0  0  0
 14 18  1  0  0  0  0
 15 17  2  0  0  0  0
 15 19  1  0  0  0  0
 16 20  1  0  0  0  0
 16 33  1  0  0  0  0
 17 21  1  0  0  0  0
 17 34  1  0  0  0  0
 18 22  2  0  0  0  0
 18 35  1  0  0  0  0
 19 23  2  0  0  0  0
 19 36  1  0  0  0  0
 20 24  2  0  0  0  0
 20 37  1  0  0  0  0
 21 25  2  0  0  0  0
 21 38  1  0  0  0  0
 22 24  1  0  0  0  0
 22 39  1  0  0  0  0
 23 25  1  0  0  0  0
 23 40  1  0  0  0  0
 24 41  1  0  0  0  0
 25 42  1  0  0  0  0
M  END
> <PUBCHEM_COMPOUND_CID>
12921521

> <PUBCHEM_CONFORMER_RMSD>
0.8

> <PUBCHEM_CONFORMER_DIVERSEORDER>
1
103
8
118
106
98
110
123
48
63
13
88
70
95
4
45
68
52
58
30
31
49
15
25
120
54
34
42
67
109
89
97
105
80
66
122
81
73
114
90
77
7
9
76
62
87
40
59
78
61
28
96
101
56
79
39
26
85
36
108
65
55
46
24
50
35
33
51
17
72
112
75
84
19
32
119
91
27
93
2
121
18
53
23
71
86
14
38
74
43
83
44
6
124
100
117
11
41
104
82
102
115
99
47
64
69
3
111
21
57
116
29
92
94
5
113
37
107
10
22
20
16
12
60

> <PUBCHEM_MMFF94_PARTIAL_CHARGES>
40
1 -0.11
10 -0.03
11 -0.03
12 -0.18
13 -0.18
14 0.03
15 0.03
16 -0.15
17 -0.15
18 -0.15
19 -0.15
2 -0.11
20 -0.15
21 -0.15
22 -0.15
23 -0.15
24 -0.15
25 -0.15
28 0.5
29 0.15
3 0.97
30 0.15
31 0.4
32 0.4
33 0.15
34 0.15
35 0.15
36 0.15
37 0.15
38 0.15
39 0.15
4 -0.77
40 0.15
41 0.15
42 0.15
5 -0.68
6 -0.68
7 -0.7
8 0.42
9 0.42

> <PUBCHEM_EFFECTIVE_ROTOR_COUNT>
6

> <PUBCHEM_PHARMACOPHORE_FEATURES>
8
1 1 hydrophobe
1 2 hydrophobe
1 5 acceptor
1 5 donor
1 6 acceptor
1 6 donor
6 14 16 18 20 22 24 rings
6 15 17 19 21 23 25 rings

> <PUBCHEM_HEAVY_ATOM_COUNT>
25

> <PUBCHEM_ATOM_DEF_STEREO_COUNT>
0

> <PUBCHEM_ATOM_UDEF_STEREO_COUNT>
2

> <PUBCHEM_BOND_DEF_STEREO_COUNT>
2

> <PUBCHEM_BOND_UDEF_STEREO_COUNT>
0

> <PUBCHEM_ISOTOPIC_ATOM_COUNT>
0

> <PUBCHEM_COMPONENT_COUNT>
1

> <PUBCHEM_CACTVS_TAUTO_COUNT>
1

> <PUBCHEM_CONFORMER_ID>
00C52AB100000001

> <PUBCHEM_MMFF94_ENERGY>
56.9348

> <PUBCHEM_FEATURE_SELFOVERLAP>
40.596

> <PUBCHEM_SHAPE_FINGERPRINT>
11135609 12 18409725145454342600
11456790 92 17988379135091625499
11545043 162 18041272201689686733
11828532 37 17750526250604049667
11991303 11 17388808683607307901
12107183 9 18271538511580826785
12166972 35 17894355454192560750
12422481 6 17131559340541864501
12596602 18 17203610423467887378
12633257 1 15554440825289995760
12760667 363 18333734606781704899
12821665 9 8718535096405426817
13103583 49 17846505828594725115
13402501 40 18408044004717847402
13533116 47 18340771567309618993
13540713 4 18262777645042363965
13673619 4 18186241723090280693
13685833 64 18409449193594370066
13690498 29 17967245378136822823
13782708 43 18040149621608226323
13911852 28 18410855434511787263
13911987 19 11169918264278975727
13955234 65 18127124397754746808
14216079 64 18408322194619160751
14251751 18 18260830375773586694
14251764 30 18409164406986780283
14347332 77 18115021909794729978
14767858 380 11530767041629105211
15238133 3 13614233837178693458
15352257 5 18408886243456754739
15475509 84 17775575220953970105
15728490 83 18050006593391892994
15927050 60 17767123477540463758
17492 54 12973887009140417532
17980427 23 13254499985793694312
1813 80 18040998470491817261
1979834 28 17203621362691458046
20567600 254 10447927256650477498
21267235 1 18341616976330938054
21521239 73 14490466453496813712
21623969 137 18343021069226721446
21682296 61 18408606963782916599
22950370 63 18409171012625252549
23424784 1240 18200035011226731230
23522609 53 18120127002360068493
23559900 14 18113892793199943829
23569943 247 18261392213800763267
2748736 6 9655570790874858710
2838139 119 9655582893770529594
2916195 48 11815908846927281375
3421961 26 18340767143351229944
345986 75 17775290460416389680
3472631 163 8430311342592216634
34797466 226 16298671706268846637
3737641 26 18268994181038636998
4098825 35 17967535657891936068
437815 12 18408605859675374945
439807 62 17967812713030904426
46194498 28 17676489492685685444
465052 167 18412269466451990734
5104073 3 18128528272729772026
513202 73 18261397720016770933
54039377 194 18337395951086742366
56633871 153 18131348587899509006
6327066 14 9439109958452859914
636775 8 18339651019655597646
70251023 43 18260551130027794880
7970288 3 18410572894335922146
9555976 147 17346051047478071923

> <PUBCHEM_SHAPE_MULTIPOLES>
506.75
17.25
3.19
1.47
3.83
0.95
0.06
-16.6
-2.93
-2.01
0.18
1.09
0.58
0.96

> <PUBCHEM_SHAPE_SELFOVERLAP>
1021.729

> <PUBCHEM_SHAPE_VOLUME>
301.5

> <PUBCHEM_COORDINATE_TYPE>
2
5
10

$$$$
