5364867
  -OEChem-02172602493D

 66 69  0     0  0  0  0  0  0999 V2000
   -4.4096   -0.8387    3.0283 Cl  0  0  0  0  0  0  0  0  0  0  0  0
   -7.3763   -1.1343    1.7707 Cl  0  0  0  0  0  0  0  0  0  0  0  0
    2.3048    6.2018    0.1344 F   0  0  0  0  0  0  0  0  0  0  0  0
    0.7212    6.0498   -1.3397 F   0  0  0  0  0  0  0  0  0  0  0  0
    0.2251    6.2883    0.7640 F   0  0  0  0  0  0  0  0  0  0  0  0
    4.9981   -3.7549   -0.1082 O   0  0  0  0  0  0  0  0  0  0  0  0
    1.0685   -2.8925   -0.7792 N   0  0  0  0  0  0  0  0  0  0  0  0
   -1.4976   -4.0868   -0.1900 N   0  0  0  0  0  0  0  0  0  0  0  0
    3.2578    1.4211    0.9509 N   0  0  0  0  0  0  0  0  0  0  0  0
    0.9480    1.4535    0.4031 N   0  0  0  0  0  0  0  0  0  0  0  0
   -0.1297    3.5471   -0.1097 N   0  0  0  0  0  0  0  0  0  0  0  0
   -1.3187    1.5402   -0.1414 N   0  0  0  0  0  0  0  0  0  0  0  0
   -2.7859    0.4051   -1.6509 N   0  0  0  0  0  0  0  0  0  0  0  0
   -0.8220    1.2107   -2.4612 N   0  0  0  0  0  0  0  0  0  0  0  0
    0.8502   -3.6609    0.4523 C   0  0  0  0  0  0  0  0  0  0  0  0
    0.1918   -3.3818   -1.8503 C   0  0  0  0  0  0  0  0  0  0  0  0
   -0.6200   -3.5981    0.8806 C   0  0  0  0  0  0  0  0  0  0  0  0
   -1.2786   -3.3202   -1.4226 C   0  0  0  0  0  0  0  0  0  0  0  0
    2.4705   -2.9535   -1.1876 C   0  0  0  0  0  0  0  0  0  0  0  0
   -2.8995   -4.0238    0.2185 C   0  0  0  0  0  0  0  0  0  0  0  0
    3.3369   -2.0449   -0.3564 C   0  0  0  0  0  0  0  0  0  0  0  0
    4.5607   -2.4894    0.1439 C   0  0  0  0  0  0  0  0  0  0  0  0
    2.9043   -0.7462   -0.0889 C   0  0  0  0  0  0  0  0  0  0  0  0
    3.6955    0.1082    0.6789 C   0  0  0  0  0  0  0  0  0  0  0  0
    5.3521   -1.6350    0.9118 C   0  0  0  0  0  0  0  0  0  0  0  0
    4.9194   -0.3363    1.1793 C   0  0  0  0  0  0  0  0  0  0  0  0
    2.0980    2.1338    0.5895 C   0  0  0  0  0  0  0  0  0  0  0  0
    6.2605   -4.1259    0.4420 C   0  0  0  0  0  0  0  0  0  0  0  0
    2.2116    3.5017    0.4467 C   0  0  0  0  0  0  0  0  0  0  0  0
    1.0535    4.1632    0.0924 C   0  0  0  0  0  0  0  0  0  0  0  0
   -0.1111    2.2112    0.0598 C   0  0  0  0  0  0  0  0  0  0  0  0
    1.0774    5.6442   -0.0853 C   0  0  0  0  0  0  0  0  0  0  0  0
   -1.6207    1.0920   -1.3374 C   0  0  0  0  0  0  0  0  0  0  0  0
   -3.8687    0.0381   -0.8235 C   0  0  0  0  0  0  0  0  0  0  0  0
   -3.6603   -0.1979    0.5354 C   0  0  0  0  0  0  0  0  0  0  0  0
   -5.1478   -0.0889   -1.3653 C   0  0  0  0  0  0  0  0  0  0  0  0
   -4.7309   -0.5607    1.3525 C   0  0  0  0  0  0  0  0  0  0  0  0
   -6.2185   -0.4518   -0.5482 C   0  0  0  0  0  0  0  0  0  0  0  0
   -6.0100   -0.6875    0.8107 C   0  0  0  0  0  0  0  0  0  0  0  0
    1.4548   -3.2556    1.2723 H   0  0  0  0  0  0  0  0  0  0  0  0
    1.1467   -4.7104    0.3186 H   0  0  0  0  0  0  0  0  0  0  0  0
    0.4536   -4.4109   -2.1310 H   0  0  0  0  0  0  0  0  0  0  0  0
    0.3123   -2.7576   -2.7442 H   0  0  0  0  0  0  0  0  0  0  0  0
   -0.7458   -4.2198    1.7754 H   0  0  0  0  0  0  0  0  0  0  0  0
   -0.8791   -2.5675    1.1596 H   0  0  0  0  0  0  0  0  0  0  0  0
   -1.5776   -2.2729   -1.2887 H   0  0  0  0  0  0  0  0  0  0  0  0
   -1.8919   -3.7344   -2.2320 H   0  0  0  0  0  0  0  0  0  0  0  0
    2.5780   -2.5985   -2.2222 H   0  0  0  0  0  0  0  0  0  0  0  0
    2.8286   -3.9904   -1.1863 H   0  0  0  0  0  0  0  0  0  0  0  0
   -3.2185   -3.0047    0.4469 H   0  0  0  0  0  0  0  0  0  0  0  0
   -3.5489   -4.4205   -0.5696 H   0  0  0  0  0  0  0  0  0  0  0  0
   -3.0682   -4.6433    1.1062 H   0  0  0  0  0  0  0  0  0  0  0  0
    1.9713   -0.4180   -0.5307 H   0  0  0  0  0  0  0  0  0  0  0  0
    6.3126   -1.9102    1.3333 H   0  0  0  0  0  0  0  0  0  0  0  0
    5.5452    0.3197    1.7793 H   0  0  0  0  0  0  0  0  0  0  0  0
    3.9089    1.9609    1.5146 H   0  0  0  0  0  0  0  0  0  0  0  0
    7.0750   -3.5222    0.0274 H   0  0  0  0  0  0  0  0  0  0  0  0
    6.2442   -4.1101    1.5371 H   0  0  0  0  0  0  0  0  0  0  0  0
    6.4498   -5.1621    0.1428 H   0  0  0  0  0  0  0  0  0  0  0  0
    3.1508    4.0188    0.6022 H   0  0  0  0  0  0  0  0  0  0  0  0
   -2.9696    0.2527   -2.6393 H   0  0  0  0  0  0  0  0  0  0  0  0
   -2.6672   -0.1472    0.9715 H   0  0  0  0  0  0  0  0  0  0  0  0
   -5.3238    0.0927   -2.4224 H   0  0  0  0  0  0  0  0  0  0  0  0
   -7.2086   -0.5461   -0.9872 H   0  0  0  0  0  0  0  0  0  0  0  0
   -1.1108    0.8271   -3.3546 H   0  0  0  0  0  0  0  0  0  0  0  0
    0.0791    1.6752   -2.4335 H   0  0  0  0  0  0  0  0  0  0  0  0
  1 37  1  0  0  0  0
  2 39  1  0  0  0  0
  3 32  1  0  0  0  0
  4 32  1  0  0  0  0
  5 32  1  0  0  0  0
  6 22  1  0  0  0  0
  6 28  1  0  0  0  0
  7 15  1  0  0  0  0
  7 16  1  0  0  0  0
  7 19  1  0  0  0  0
  8 17  1  0  0  0  0
  8 18  1  0  0  0  0
  8 20  1  0  0  0  0
  9 24  1  0  0  0  0
  9 27  1  0  0  0  0
  9 56  1  0  0  0  0
 10 27  2  0  0  0  0
 10 31  1  0  0  0  0
 11 30  1  0  0  0  0
 11 31  2  0  0  0  0
 12 31  1  0  0  0  0
 12 33  2  0  0  0  0
 13 33  1  0  0  0  0
 13 34  1  0  0  0  0
 13 61  1  0  0  0  0
 14 33  1  0  0  0  0
 14 65  1  0  0  0  0
 14 66  1  0  0  0  0
 15 17  1  0  0  0  0
 15 40  1  0  0  0  0
 15 41  1  0  0  0  0
 16 18  1  0  0  0  0
 16 42  1  0  0  0  0
 16 43  1  0  0  0  0
 17 44  1  0  0  0  0
 17 45  1  0  0  0  0
 18 46  1  0  0  0  0
 18 47  1  0  0  0  0
 19 21  1  0  0  0  0
 19 48  1  0  0  0  0
 19 49  1  0  0  0  0
 20 50  1  0  0  0  0
 20 51  1  0  0  0  0
 20 52  1  0  0  0  0
 21 22  2  0  0  0  0
 21 23  1  0  0  0  0
 22 25  1  0  0  0  0
 23 24  2  0  0  0  0
 23 53  1  0  0  0  0
 24 26  1  0  0  0  0
 25 26  2  0  0  0  0
 25 54  1  0  0  0  0
 26 55  1  0  0  0  0
 27 29  1  0  0  0  0
 28 57  1  0  0  0  0
 28 58  1  0  0  0  0
 28 59  1  0  0  0  0
 29 30  2  0  0  0  0
 29 60  1  0  0  0  0
 30 32  1  0  0  0  0
 34 35  2  0  0  0  0
 34 36  1  0  0  0  0
 35 37  1  0  0  0  0
 35 62  1  0  0  0  0
 36 38  2  0  0  0  0
 36 63  1  0  0  0  0
 37 39  2  0  0  0  0
 38 39  1  0  0  0  0
 38 64  1  0  0  0  0
M  END
> <PUBCHEM_COMPOUND_CID>
5364867

> <PUBCHEM_CONFORMER_RMSD>
1.4

> <PUBCHEM_CONFORMER_DIVERSEORDER>
1
59
102
75
37
98
55
19
63
97
78
76
48
50
4
81
66
69
46
89
83
24
93
60
99
7
86
90
71
45
39
61
100
44
92
30
58
53
77
13
21
85
42
43
62
47
68
16
82
101
34
105
26
27
64
52
95
57
20
5
51
56
96
40
18
79
88
25
87
32
80
74
104
23
31
54
70
22
94
72
36
9
14
8
65
67
38
2
91
84
35
10
33
29
73
49
41
103
15
11
17
28
3
12
6

> <PUBCHEM_MMFF94_PARTIAL_CHARGES>
50
1 -0.18
10 -0.62
11 -0.62
12 -0.63
13 -0.55
14 -0.85
15 0.27
16 0.27
17 0.27
18 0.27
19 0.41
2 -0.18
20 0.27
21 -0.14
22 0.08
23 -0.15
24 0.1
25 -0.15
26 -0.15
27 0.41
28 0.28
29 -0.15
3 -0.34
30 0.17
31 0.8
32 1.16
33 0.55
34 0.1
35 -0.15
36 -0.15
37 0.18
38 -0.15
39 0.18
4 -0.34
5 -0.34
53 0.15
54 0.15
55 0.15
56 0.4
6 -0.36
60 0.15
61 0.4
62 0.15
63 0.15
64 0.15
65 0.4
66 0.4
7 -0.81
8 -0.81
9 -0.6

> <PUBCHEM_EFFECTIVE_ROTOR_COUNT>
10.2

> <PUBCHEM_PHARMACOPHORE_FEATURES>
12
1 13 donor
1 14 donor
1 6 acceptor
1 7 cation
1 8 cation
1 9 donor
4 10 11 12 31 cation
4 12 13 14 33 cation
6 10 11 27 29 30 31 rings
6 21 22 23 24 25 26 rings
6 34 35 36 37 38 39 rings
6 7 8 15 16 17 18 rings

> <PUBCHEM_HEAVY_ATOM_COUNT>
39

> <PUBCHEM_ATOM_DEF_STEREO_COUNT>
0

> <PUBCHEM_ATOM_UDEF_STEREO_COUNT>
0

> <PUBCHEM_BOND_DEF_STEREO_COUNT>
1

> <PUBCHEM_BOND_UDEF_STEREO_COUNT>
0

> <PUBCHEM_ISOTOPIC_ATOM_COUNT>
0

> <PUBCHEM_COMPONENT_COUNT>
1

> <PUBCHEM_CACTVS_TAUTO_COUNT>
22

> <PUBCHEM_CONFORMER_ID>
0051DC8300000001

> <PUBCHEM_MMFF94_ENERGY>
129.2364

> <PUBCHEM_FEATURE_SELFOVERLAP>
60.996

> <PUBCHEM_SHAPE_FINGERPRINT>
10675989 125 15459585536972565116
10816530 23 17762898062866273337
10864689 126 18194682554041335767
11756154 5 18264759987941306266
12106331 60 18120927305513025210
12342043 65 17968098659785702569
12422481 6 18192444176327654155
13402501 40 18409163277474178563
13947930 73 18113332024858508498
14725015 67 18196078950793171394
15400415 2 17618218855459132781
16112460 7 18270967950195913251
16990350 14 17834115629677734192
16993438 75 17761775066014054138
19319366 153 17840024379517515481
20764821 26 18339635767218783742
21796203 349 18192740966434341288
392239 28 18341894056955146911
50150288 127 16982391050802606687
5309563 4 18339356349309413333
563151 40 17398405602803358548
6695519 79 16841589537813091402
9896288 288 17764020269085442470

> <PUBCHEM_SHAPE_MULTIPOLES>
738.8
13.14
8.88
1.75
10.24
14.24
-0.14
-12.15
-5.88
-9.03
0.94
2.26
-0.53
0.97

> <PUBCHEM_SHAPE_SELFOVERLAP>
1562.445

> <PUBCHEM_SHAPE_VOLUME>
416.1

> <PUBCHEM_COORDINATE_TYPE>
2
5
10

$$$$
