9830456
  -OEChem-02172602293D

 68 72  0     1  0  0  0  0  0999 V2000
    1.2101   -1.9910    0.5458 O   0  0  0  0  0  0  0  0  0  0  0  0
    2.2877   -0.2181    1.6132 O   0  0  0  0  0  0  0  0  0  0  0  0
    2.4500   -5.0082   -1.1194 O   0  0  0  0  0  0  0  0  0  0  0  0
    4.6031   -4.3014    0.6752 O   0  0  0  0  0  0  0  0  0  0  0  0
    4.7872   -1.3750    0.9634 O   0  0  0  0  0  0  0  0  0  0  0  0
   -1.0598   -2.6595   -0.8531 O   0  0  0  0  0  0  0  0  0  0  0  0
    0.3821    2.6501    0.2982 O   0  0  0  0  0  0  0  0  0  0  0  0
   -0.2906   -0.6799    2.5482 O   0  0  0  0  0  0  0  0  0  0  0  0
   -2.6998   -3.7813    0.3095 O   0  0  0  0  0  0  0  0  0  0  0  0
   -2.8108   -0.0220    2.7787 O   0  0  0  0  0  0  0  0  0  0  0  0
   -4.1587    3.9925    0.6312 O   0  0  0  0  0  0  0  0  0  0  0  0
    4.6284    1.6450   -3.0568 O   0  0  0  0  0  0  0  0  0  0  0  0
    6.3508    3.2775   -1.6093 O   0  0  0  0  0  0  0  0  0  0  0  0
   -3.0262    1.3504   -2.7061 O   0  0  0  0  0  0  0  0  0  0  0  0
   -6.6787   -0.7106   -0.3929 O   0  0  0  0  0  0  0  0  0  0  0  0
   -5.6877    1.3632   -1.9383 O   0  0  0  0  0  0  0  0  0  0  0  0
    2.3475   -4.0378   -0.0806 C   0  0  1  0  0  0  0  0  0  0  0  0
    3.7009   -3.3517    0.1056 C   0  0  1  0  0  0  0  0  0  0  0  0
    1.2670   -3.0174   -0.4463 C   0  0  1  0  0  0  0  0  0  0  0  0
    3.5847   -2.1410    1.0317 C   0  0  2  0  0  0  0  0  0  0  0  0
    2.4191   -1.2395    0.6250 C   0  0  1  0  0  0  0  0  0  0  0  0
   -0.1143   -3.6603   -0.5227 C   0  0  0  0  0  0  0  0  0  0  0  0
    1.2480    0.6382    1.3221 C   0  0  0  0  0  0  0  0  0  0  0  0
    1.3984    1.7515    0.5817 C   0  0  0  0  0  0  0  0  0  0  0  0
   -0.0926    0.3190    1.8696 C   0  0  0  0  0  0  0  0  0  0  0  0
   -1.1700    1.2695    1.5538 C   0  0  0  0  0  0  0  0  0  0  0  0
   -2.3236   -2.8406   -0.3723 C   0  0  0  0  0  0  0  0  0  0  0  0
   -0.8742    2.3904    0.7813 C   0  0  0  0  0  0  0  0  0  0  0  0
    2.6949    2.1494    0.0048 C   0  0  0  0  0  0  0  0  0  0  0  0
   -3.2149   -1.7283   -0.7879 C   0  0  0  0  0  0  0  0  0  0  0  0
   -2.4696    1.0567    2.0202 C   0  0  0  0  0  0  0  0  0  0  0  0
   -1.8782    3.3079    0.4701 C   0  0  0  0  0  0  0  0  0  0  0  0
    3.0581    1.7071   -1.2676 C   0  0  0  0  0  0  0  0  0  0  0  0
    3.5600    2.9685    0.7309 C   0  0  0  0  0  0  0  0  0  0  0  0
   -3.4720    1.9755    1.7072 C   0  0  0  0  0  0  0  0  0  0  0  0
   -3.1771    3.0990    0.9337 C   0  0  0  0  0  0  0  0  0  0  0  0
   -4.5359   -1.7476   -0.3903 C   0  0  0  0  0  0  0  0  0  0  0  0
   -2.6935   -0.7086   -1.5578 C   0  0  0  0  0  0  0  0  0  0  0  0
    4.2852    2.0836   -1.8135 C   0  0  0  0  0  0  0  0  0  0  0  0
    4.7871    3.3450    0.1851 C   0  0  0  0  0  0  0  0  0  0  0  0
    5.1498    2.9026   -1.0871 C   0  0  0  0  0  0  0  0  0  0  0  0
   -3.5300    0.3376   -1.9468 C   0  0  0  0  0  0  0  0  0  0  0  0
   -5.3725   -0.7014   -0.7795 C   0  0  0  0  0  0  0  0  0  0  0  0
   -4.8695    0.3411   -1.5578 C   0  0  0  0  0  0  0  0  0  0  0  0
    2.0829   -4.5657    0.8449 H   0  0  0  0  0  0  0  0  0  0  0  0
    4.1290   -3.0638   -0.8618 H   0  0  0  0  0  0  0  0  0  0  0  0
    1.4788   -2.5529   -1.4190 H   0  0  0  0  0  0  0  0  0  0  0  0
    3.4729   -2.4696    2.0725 H   0  0  0  0  0  0  0  0  0  0  0  0
    2.6323   -0.7861   -0.3487 H   0  0  0  0  0  0  0  0  0  0  0  0
   -0.3496   -4.1183    0.4459 H   0  0  0  0  0  0  0  0  0  0  0  0
   -0.1504   -4.4305   -1.2993 H   0  0  0  0  0  0  0  0  0  0  0  0
    1.6767   -5.5935   -1.0576 H   0  0  0  0  0  0  0  0  0  0  0  0
    4.2582   -4.5621    1.5462 H   0  0  0  0  0  0  0  0  0  0  0  0
    4.6710   -0.5979    1.5364 H   0  0  0  0  0  0  0  0  0  0  0  0
   -1.6440    4.1814   -0.1334 H   0  0  0  0  0  0  0  0  0  0  0  0
    2.3864    1.0768   -1.8466 H   0  0  0  0  0  0  0  0  0  0  0  0
    3.2909    3.3213    1.7236 H   0  0  0  0  0  0  0  0  0  0  0  0
   -4.4866    1.8164    2.0647 H   0  0  0  0  0  0  0  0  0  0  0  0
   -4.9305   -2.5576    0.2167 H   0  0  0  0  0  0  0  0  0  0  0  0
   -1.6546   -0.6835   -1.8726 H   0  0  0  0  0  0  0  0  0  0  0  0
    5.4512    3.9833    0.7619 H   0  0  0  0  0  0  0  0  0  0  0  0
   -2.0471   -0.6060    2.9025 H   0  0  0  0  0  0  0  0  0  0  0  0
   -3.7798    4.7053    0.0886 H   0  0  0  0  0  0  0  0  0  0  0  0
    5.5075    2.0006   -3.2747 H   0  0  0  0  0  0  0  0  0  0  0  0
    6.8133    3.8422   -0.9665 H   0  0  0  0  0  0  0  0  0  0  0  0
   -2.0814    1.1870   -2.8692 H   0  0  0  0  0  0  0  0  0  0  0  0
   -6.8468   -1.5067    0.1397 H   0  0  0  0  0  0  0  0  0  0  0  0
   -6.5751    1.1975   -1.5753 H   0  0  0  0  0  0  0  0  0  0  0  0
  1 19  1  0  0  0  0
  1 21  1  0  0  0  0
  2 21  1  0  0  0  0
  2 23  1  0  0  0  0
  3 17  1  0  0  0  0
  3 52  1  0  0  0  0
  4 18  1  0  0  0  0
  4 53  1  0  0  0  0
  5 20  1  0  0  0  0
  5 54  1  0  0  0  0
  6 22  1  0  0  0  0
  6 27  1  0  0  0  0
  7 24  1  0  0  0  0
  7 28  1  0  0  0  0
  8 25  2  0  0  0  0
  9 27  2  0  0  0  0
 10 31  1  0  0  0  0
 10 62  1  0  0  0  0
 11 36  1  0  0  0  0
 11 63  1  0  0  0  0
 12 39  1  0  0  0  0
 12 64  1  0  0  0  0
 13 41  1  0  0  0  0
 13 65  1  0  0  0  0
 14 42  1  0  0  0  0
 14 66  1  0  0  0  0
 15 43  1  0  0  0  0
 15 67  1  0  0  0  0
 16 44  1  0  0  0  0
 16 68  1  0  0  0  0
 17 18  1  0  0  0  0
 17 19  1  0  0  0  0
 17 45  1  0  0  0  0
 18 20  1  0  0  0  0
 18 46  1  0  0  0  0
 19 22  1  0  0  0  0
 19 47  1  0  0  0  0
 20 21  1  0  0  0  0
 20 48  1  0  0  0  0
 21 49  1  0  0  0  0
 22 50  1  0  0  0  0
 22 51  1  0  0  0  0
 23 24  2  0  0  0  0
 23 25  1  0  0  0  0
 24 29  1  0  0  0  0
 25 26  1  0  0  0  0
 26 28  1  0  0  0  0
 26 31  2  0  0  0  0
 27 30  1  0  0  0  0
 28 32  2  0  0  0  0
 29 33  2  0  0  0  0
 29 34  1  0  0  0  0
 30 37  2  0  0  0  0
 30 38  1  0  0  0  0
 31 35  1  0  0  0  0
 32 36  1  0  0  0  0
 32 55  1  0  0  0  0
 33 39  1  0  0  0  0
 33 56  1  0  0  0  0
 34 40  2  0  0  0  0
 34 57  1  0  0  0  0
 35 36  2  0  0  0  0
 35 58  1  0  0  0  0
 37 43  1  0  0  0  0
 37 59  1  0  0  0  0
 38 42  2  0  0  0  0
 38 60  1  0  0  0  0
 39 41  2  0  0  0  0
 40 41  1  0  0  0  0
 40 61  1  0  0  0  0
 42 44  1  0  0  0  0
 43 44  2  0  0  0  0
M  END
> <PUBCHEM_COMPOUND_CID>
9830456

> <PUBCHEM_CONFORMER_RMSD>
1.2

> <PUBCHEM_CONFORMER_DIVERSEORDER>
1
157
135
635
216
64
171
758
489
176
292
470
336
358
678
681
586
504
456
423
582
328
327
378
31
239
225
506
20
653
114
365
222
589
737
108
196
113
16
105
746
63
257
288
600
259
770
487
121
372
733
357
68
341
668
613
50
362
77
657
660
761
202
312
8
37
94
727
72
459
111
315
387
460
330
552
437
156
273
263
78
51
233
551
130
247
146
554
23
417
572
167
400
116
285
396
54
110
508
628
644
10
467
112
148
638
588
30
269
98
633
205
65
304
214
40
9
249
169
152
559
7
24
773
751
276
12
607
25
235
567
191
138
507
6
4
689
61
672
206
92
2
309
380
356
119
565
381
173
491
93
124
375
769
483
147
640
424
321
140
428
36
693
227
426
643
177
240
395
14
82
204
207
702
495
438
79
416
236
229
69
445
134
109
165
421
302
602
126
683
728
661
27
291
692
371
22
183
203
466
519
161
335
305
245
38
388
486
11
70
46
67
58
48
736
3
136
133
228
137
329
750
577
32
17
711
154
57
521
151
252
59

> <PUBCHEM_MMFF94_PARTIAL_CHARGES>
61
1 -0.56
10 -0.53
11 -0.53
12 -0.53
13 -0.53
14 -0.53
15 -0.53
16 -0.53
17 0.28
18 0.28
19 0.28
2 -0.36
20 0.28
21 0.56
22 0.28
23 0.09
24 0.05
25 0.47
26 0.09
27 0.63
28 0.08
29 0.03
3 -0.68
30 0.09
31 0.08
32 -0.15
33 -0.15
34 -0.15
35 -0.15
36 0.08
37 -0.15
38 -0.15
39 0.08
4 -0.68
40 -0.15
41 0.08
42 0.08
43 0.08
44 0.08
5 -0.68
52 0.4
53 0.4
54 0.4
55 0.15
56 0.15
57 0.15
58 0.15
59 0.15
6 -0.43
60 0.15
61 0.15
62 0.45
63 0.45
64 0.45
65 0.45
66 0.45
67 0.45
68 0.45
7 -0.16
8 -0.57
9 -0.57

> <PUBCHEM_EFFECTIVE_ROTOR_COUNT>
8.2

> <PUBCHEM_PHARMACOPHORE_FEATURES>
23
1 1 acceptor
1 10 donor
1 11 donor
1 12 donor
1 13 donor
1 14 donor
1 15 donor
1 16 donor
1 2 acceptor
1 3 acceptor
1 3 donor
1 4 acceptor
1 4 donor
1 5 acceptor
1 5 donor
1 7 acceptor
1 8 acceptor
1 9 acceptor
6 1 17 18 19 20 21 rings
6 26 28 31 32 35 36 rings
6 29 33 34 39 40 41 rings
6 30 37 38 42 43 44 rings
6 7 23 24 25 26 28 rings

> <PUBCHEM_HEAVY_ATOM_COUNT>
44

> <PUBCHEM_ATOM_DEF_STEREO_COUNT>
5

> <PUBCHEM_ATOM_UDEF_STEREO_COUNT>
0

> <PUBCHEM_BOND_DEF_STEREO_COUNT>
0

> <PUBCHEM_BOND_UDEF_STEREO_COUNT>
0

> <PUBCHEM_ISOTOPIC_ATOM_COUNT>
0

> <PUBCHEM_COMPONENT_COUNT>
1

> <PUBCHEM_CACTVS_TAUTO_COUNT>
998

> <PUBCHEM_CONFORMER_ID>
0096003800000001

> <PUBCHEM_MMFF94_ENERGY>
134.2394

> <PUBCHEM_FEATURE_SELFOVERLAP>
116.846

> <PUBCHEM_SHAPE_FINGERPRINT>
10190108 129 17979948177891407267
10190206 1 18268724976941623412
10577160 183 18114738348487780544
11135926 11 18339364166244980857
11513181 2 18263651666765959068
11578080 2 16008759017540213730
12156800 1 15912493381346077083
12788726 201 17989207066651494865
13111901 51 18341324552823187544
13560911 43 18189322499032543179
140371 6 18341608157866923438
144659 178 18125998270092726672
15082195 135 18338229367382146072
15351334 14 18187940429890518077
15351339 4 18341894151195916442
15406563 228 18265327300995340310
17627616 140 18340219513413914508
19311894 1 17694788823689551142
20764821 26 18197786496608631675
21796203 349 17547616636705622242
23536364 44 18053951924199451326
338550 245 18126562328179170593
46194498 28 18114731660136459047
463206 1 17768523894239387345
469060 322 17834104256377636594
5081480 168 17460331957457940892
5265222 85 17902232552403398413
56611832 218 16174254939026277532

> <PUBCHEM_SHAPE_MULTIPOLES>
811.59
12.08
6.36
2.28
0.75
4.68
-0.35
-4.88
-6.03
-5.58
-0.2
0.47
-1.14
-2.9

> <PUBCHEM_SHAPE_SELFOVERLAP>
1799.525

> <PUBCHEM_SHAPE_VOLUME>
429.2

> <PUBCHEM_COORDINATE_TYPE>
2
5
10

$$$$
