149830
  -OEChem-02172602523D

 38 43  0     0  0  0  0  0  0999 V2000
    6.6043    1.4221   -0.0020 F   0  0  0  0  0  0  0  0  0  0  0  0
   -6.6044   -1.4222   -0.0005 F   0  0  0  0  0  0  0  0  0  0  0  0
    0.6821   -0.2151    0.0008 C   0  0  0  0  0  0  0  0  0  0  0  0
   -0.6821    0.2152    0.0008 C   0  0  0  0  0  0  0  0  0  0  0  0
    1.7569    0.7171    0.0009 C   0  0  0  0  0  0  0  0  0  0  0  0
   -1.7568   -0.7170    0.0006 C   0  0  0  0  0  0  0  0  0  0  0  0
    0.9636   -1.5954    0.0005 C   0  0  0  0  0  0  0  0  0  0  0  0
   -0.9635    1.5955    0.0007 C   0  0  0  0  0  0  0  0  0  0  0  0
    3.1167    0.2457    0.0005 C   0  0  0  0  0  0  0  0  0  0  0  0
   -3.1167   -0.2457    0.0001 C   0  0  0  0  0  0  0  0  0  0  0  0
    3.3611   -1.1486    0.0000 C   0  0  0  0  0  0  0  0  0  0  0  0
   -3.3611    1.1486   -0.0003 C   0  0  0  0  0  0  0  0  0  0  0  0
    1.4121    2.0840    0.0011 C   0  0  0  0  0  0  0  0  0  0  0  0
   -1.4120   -2.0840    0.0006 C   0  0  0  0  0  0  0  0  0  0  0  0
    2.2878   -2.0432    0.0002 C   0  0  0  0  0  0  0  0  0  0  0  0
   -2.2877    2.0432    0.0001 C   0  0  0  0  0  0  0  0  0  0  0  0
    0.0856    2.5141    0.0009 C   0  0  0  0  0  0  0  0  0  0  0  0
   -0.0856   -2.5141    0.0005 C   0  0  0  0  0  0  0  0  0  0  0  0
    4.2578    1.0893    0.0003 C   0  0  0  0  0  0  0  0  0  0  0  0
   -4.2578   -1.0893    0.0000 C   0  0  0  0  0  0  0  0  0  0  0  0
    4.6762   -1.6463   -0.0010 C   0  0  0  0  0  0  0  0  0  0  0  0
   -4.6762    1.6463   -0.0012 C   0  0  0  0  0  0  0  0  0  0  0  0
    5.5605    0.5829   -0.0004 C   0  0  0  0  0  0  0  0  0  0  0  0
   -5.5605   -0.5831   -0.0007 C   0  0  0  0  0  0  0  0  0  0  0  0
    5.7698   -0.7866   -0.0011 C   0  0  0  0  0  0  0  0  0  0  0  0
   -5.7698    0.7865   -0.0014 C   0  0  0  0  0  0  0  0  0  0  0  0
    2.1731    2.8599    0.0012 H   0  0  0  0  0  0  0  0  0  0  0  0
   -2.1730   -2.8598    0.0004 H   0  0  0  0  0  0  0  0  0  0  0  0
    2.4867   -3.1156   -0.0002 H   0  0  0  0  0  0  0  0  0  0  0  0
   -2.4868    3.1156   -0.0001 H   0  0  0  0  0  0  0  0  0  0  0  0
   -0.1121    3.5844    0.0009 H   0  0  0  0  0  0  0  0  0  0  0  0
    0.1122   -3.5844    0.0004 H   0  0  0  0  0  0  0  0  0  0  0  0
    4.1576    2.1714    0.0004 H   0  0  0  0  0  0  0  0  0  0  0  0
   -4.1575   -2.1715    0.0005 H   0  0  0  0  0  0  0  0  0  0  0  0
    4.8613   -2.7191   -0.0016 H   0  0  0  0  0  0  0  0  0  0  0  0
   -4.8615    2.7191   -0.0016 H   0  0  0  0  0  0  0  0  0  0  0  0
    6.7791   -1.1863   -0.0021 H   0  0  0  0  0  0  0  0  0  0  0  0
   -6.7791    1.1861   -0.0020 H   0  0  0  0  0  0  0  0  0  0  0  0
  1 23  1  0  0  0  0
  2 24  1  0  0  0  0
  3  4  1  0  0  0  0
  3  5  1  0  0  0  0
  3  7  2  0  0  0  0
  4  6  1  0  0  0  0
  4  8  2  0  0  0  0
  5  9  2  0  0  0  0
  5 13  1  0  0  0  0
  6 10  2  0  0  0  0
  6 14  1  0  0  0  0
  7 15  1  0  0  0  0
  7 18  1  0  0  0  0
  8 16  1  0  0  0  0
  8 17  1  0  0  0  0
  9 11  1  0  0  0  0
  9 19  1  0  0  0  0
 10 12  1  0  0  0  0
 10 20  1  0  0  0  0
 11 15  2  0  0  0  0
 11 21  1  0  0  0  0
 12 16  2  0  0  0  0
 12 22  1  0  0  0  0
 13 17  2  0  0  0  0
 13 27  1  0  0  0  0
 14 18  2  0  0  0  0
 14 28  1  0  0  0  0
 15 29  1  0  0  0  0
 16 30  1  0  0  0  0
 17 31  1  0  0  0  0
 18 32  1  0  0  0  0
 19 23  2  0  0  0  0
 19 33  1  0  0  0  0
 20 24  2  0  0  0  0
 20 34  1  0  0  0  0
 21 25  2  0  0  0  0
 21 35  1  0  0  0  0
 22 26  2  0  0  0  0
 22 36  1  0  0  0  0
 23 25  1  0  0  0  0
 24 26  1  0  0  0  0
 25 37  1  0  0  0  0
 26 38  1  0  0  0  0
M  END
> <PUBCHEM_COMPOUND_CID>
149830

> <PUBCHEM_CONFORMER_RMSD>
0.6

> <PUBCHEM_CONFORMER_DIVERSEORDER>
1

> <PUBCHEM_MMFF94_PARTIAL_CHARGES>
28
1 -0.19
13 -0.15
14 -0.15
15 -0.15
16 -0.15
17 -0.15
18 -0.15
19 -0.15
2 -0.19
20 -0.15
21 -0.15
22 -0.15
23 0.19
24 0.19
25 -0.15
26 -0.15
27 0.15
28 0.15
29 0.15
30 0.15
31 0.15
32 0.15
33 0.15
34 0.15
35 0.15
36 0.15
37 0.15
38 0.15

> <PUBCHEM_EFFECTIVE_ROTOR_COUNT>
0

> <PUBCHEM_PHARMACOPHORE_FEATURES>
6
6 10 12 20 22 24 26 rings
6 3 4 5 8 13 17 rings
6 3 4 6 7 14 18 rings
6 3 5 7 9 11 15 rings
6 4 6 8 10 12 16 rings
6 9 11 19 21 23 25 rings

> <PUBCHEM_HEAVY_ATOM_COUNT>
26

> <PUBCHEM_ATOM_DEF_STEREO_COUNT>
0

> <PUBCHEM_ATOM_UDEF_STEREO_COUNT>
0

> <PUBCHEM_BOND_DEF_STEREO_COUNT>
0

> <PUBCHEM_BOND_UDEF_STEREO_COUNT>
0

> <PUBCHEM_ISOTOPIC_ATOM_COUNT>
0

> <PUBCHEM_COMPONENT_COUNT>
1

> <PUBCHEM_CACTVS_TAUTO_COUNT>
1

> <PUBCHEM_CONFORMER_ID>
0002494600000001

> <PUBCHEM_MMFF94_ENERGY>
93.6892

> <PUBCHEM_FEATURE_SELFOVERLAP>
30.622

> <PUBCHEM_SHAPE_FINGERPRINT>
10 15 18335695092560865256
10906281 52 18338817648720161738
10967382 1 18410573980861765090
1100329 8 18338797947694612528
11112241 14 16556190575521780528
11488393 25 17344362050687165111
11578080 2 16771527732898106226
11607047 403 15689236785481277059
11646440 116 18202008750050340737
11963148 33 18409441505540665551
12011746 2 18410856555344822404
12107183 9 17546164099750068083
12166972 35 17894917312807395052
12236239 1 18410573967971581968
12516196 113 18343863320512751408
12788726 201 17703235026884395672
12838862 33 18338779187351758308
13140716 1 18122626316632064273
13402501 40 18410855455833194512
13862211 1 18410009922812348546
14394314 77 18341337721045932161
14787075 74 18409166593125036555
14790565 3 18411142411283581632
14849402 71 18270969058599039641
15131766 46 16011016439840351206
15196674 1 18410855425768423428
15927050 60 17695062593289165588
1601671 61 18411699867883725360
17492 89 18122059806726592346
1813 80 17312824857778214124
18608769 82 18338237192960570851
18681886 176 18411694426229084201
19591789 44 18410854321967129099
200 152 18201998816007210329
20028762 73 18202279238807397375
21130935 74 18272089366147031274
21236236 1 18412263905065493145
21267235 1 18411426093794159790
21279426 13 18338797788780822975
21792934 111 18339346471248688344
23402539 116 18342733018311708455
23522609 53 18195558980261463592
23559900 14 18339916104298290265
3004659 81 18261395521114516334
3178227 256 18336277811963517187
335352 9 18410856576819659196
34797466 226 17275110561279607036
34934 24 18410570700008196706
350125 39 18411136935300532001
3680242 22 18262516983792862458
4073 2 18041286538085130258
474229 33 18411418393017998895
5104073 3 18338797818845594521
5486654 2 18411704296533194780
59755656 215 18411142398920945534
6138700 20 18337392647407188554

> <PUBCHEM_SHAPE_MULTIPOLES>
520.52
13.67
2.62
0.61
0
0
0
0
0.01
0
0
0
0
0

> <PUBCHEM_SHAPE_SELFOVERLAP>
1232.764

> <PUBCHEM_SHAPE_VOLUME>
262.3

> <PUBCHEM_COORDINATE_TYPE>
2
5
10

$$$$
