156589
  -OEChem-02172602363D

 47 49  0     1  0  0  0  0  0999 V2000
   -0.4258    0.1254   -0.3792 O   0  0  0  0  0  0  0  0  0  0  0  0
    4.0487   -1.4776   -0.3168 O   0  0  0  0  0  0  0  0  0  0  0  0
    0.8133    3.9283    0.5341 O   0  0  0  0  0  0  0  0  0  0  0  0
    3.2746    3.0894    0.6795 O   0  0  0  0  0  0  0  0  0  0  0  0
   -1.2955    1.0340    0.3143 C   0  0  1  0  0  0  0  0  0  0  0  0
   -1.0000    2.4808   -0.0761 C   0  0  0  0  0  0  0  0  0  0  0  0
    0.9024    0.4002   -0.1789 C   0  0  0  0  0  0  0  0  0  0  0  0
    1.3850    1.6690    0.1551 C   0  0  0  0  0  0  0  0  0  0  0  0
    1.7953   -0.6580   -0.3530 C   0  0  0  0  0  0  0  0  0  0  0  0
    0.4353    2.7965    0.2554 C   0  0  0  0  0  0  0  0  0  0  0  0
   -2.7283    0.6637   -0.0059 C   0  0  0  0  0  0  0  0  0  0  0  0
    1.2957   -2.0161   -0.7318 C   0  0  0  0  0  0  0  0  0  0  0  0
    2.7532    1.8753    0.3485 C   0  0  0  0  0  0  0  0  0  0  0  0
    3.1622   -0.4539   -0.1615 C   0  0  0  0  0  0  0  0  0  0  0  0
    3.6392    0.8085    0.1932 C   0  0  0  0  0  0  0  0  0  0  0  0
   -3.7283    0.8601    0.9463 C   0  0  0  0  0  0  0  0  0  0  0  0
   -3.0477    0.1271   -1.2530 C   0  0  0  0  0  0  0  0  0  0  0  0
    0.9735   -2.8748    0.4646 C   0  0  0  0  0  0  0  0  0  0  0  0
   -5.0483    0.5193    0.6514 C   0  0  0  0  0  0  0  0  0  0  0  0
   -4.3677   -0.2136   -1.5478 C   0  0  0  0  0  0  0  0  0  0  0  0
   -0.2033   -3.4477    0.7821 C   0  0  0  0  0  0  0  0  0  0  0  0
   -5.3680   -0.0174   -0.5956 C   0  0  0  0  0  0  0  0  0  0  0  0
   -0.4559   -4.2956    1.9964 C   0  0  0  0  0  0  0  0  0  0  0  0
   -1.4069   -3.2560   -0.1021 C   0  0  0  0  0  0  0  0  0  0  0  0
    4.5974   -1.6669   -1.6192 C   0  0  0  0  0  0  0  0  0  0  0  0
   -1.1335    0.8821    1.3919 H   0  0  0  0  0  0  0  0  0  0  0  0
   -1.6499    3.1683    0.4766 H   0  0  0  0  0  0  0  0  0  0  0  0
   -1.1379    2.6491   -1.1507 H   0  0  0  0  0  0  0  0  0  0  0  0
    0.4744   -1.9085   -1.4429 H   0  0  0  0  0  0  0  0  0  0  0  0
    2.0474   -2.5578   -1.3172 H   0  0  0  0  0  0  0  0  0  0  0  0
    4.7071    0.9533    0.3400 H   0  0  0  0  0  0  0  0  0  0  0  0
   -3.4918    1.2792    1.9206 H   0  0  0  0  0  0  0  0  0  0  0  0
   -2.2895   -0.0247   -2.0164 H   0  0  0  0  0  0  0  0  0  0  0  0
    1.8113   -3.0564    1.1376 H   0  0  0  0  0  0  0  0  0  0  0  0
   -5.8273    0.6726    1.3925 H   0  0  0  0  0  0  0  0  0  0  0  0
   -4.6174   -0.6292   -2.5196 H   0  0  0  0  0  0  0  0  0  0  0  0
    4.2405    3.0155    0.7644 H   0  0  0  0  0  0  0  0  0  0  0  0
   -6.3960   -0.2821   -0.8255 H   0  0  0  0  0  0  0  0  0  0  0  0
    0.4435   -4.3935    2.6131 H   0  0  0  0  0  0  0  0  0  0  0  0
   -1.2400   -3.8498    2.6167 H   0  0  0  0  0  0  0  0  0  0  0  0
   -0.7708   -5.3017    1.7017 H   0  0  0  0  0  0  0  0  0  0  0  0
   -1.2323   -2.7505   -1.0501 H   0  0  0  0  0  0  0  0  0  0  0  0
   -1.8353   -4.2333   -0.3529 H   0  0  0  0  0  0  0  0  0  0  0  0
   -2.1710   -2.6856    0.4374 H   0  0  0  0  0  0  0  0  0  0  0  0
    5.4057   -0.9478   -1.7837 H   0  0  0  0  0  0  0  0  0  0  0  0
    3.8416   -1.5537   -2.4033 H   0  0  0  0  0  0  0  0  0  0  0  0
    5.0119   -2.6773   -1.6737 H   0  0  0  0  0  0  0  0  0  0  0  0
  1  5  1  0  0  0  0
  1  7  1  0  0  0  0
  2 14  1  0  0  0  0
  2 25  1  0  0  0  0
  3 10  2  0  0  0  0
  4 13  1  0  0  0  0
  4 37  1  0  0  0  0
  5  6  1  0  0  0  0
  5 11  1  0  0  0  0
  5 26  1  0  0  0  0
  6 10  1  0  0  0  0
  6 27  1  0  0  0  0
  6 28  1  0  0  0  0
  7  8  2  0  0  0  0
  7  9  1  0  0  0  0
  8 10  1  0  0  0  0
  8 13  1  0  0  0  0
  9 12  1  0  0  0  0
  9 14  2  0  0  0  0
 11 16  2  0  0  0  0
 11 17  1  0  0  0  0
 12 18  1  0  0  0  0
 12 29  1  0  0  0  0
 12 30  1  0  0  0  0
 13 15  2  0  0  0  0
 14 15  1  0  0  0  0
 15 31  1  0  0  0  0
 16 19  1  0  0  0  0
 16 32  1  0  0  0  0
 17 20  2  0  0  0  0
 17 33  1  0  0  0  0
 18 21  2  0  0  0  0
 18 34  1  0  0  0  0
 19 22  2  0  0  0  0
 19 35  1  0  0  0  0
 20 22  1  0  0  0  0
 20 36  1  0  0  0  0
 21 23  1  0  0  0  0
 21 24  1  0  0  0  0
 22 38  1  0  0  0  0
 23 39  1  0  0  0  0
 23 40  1  0  0  0  0
 23 41  1  0  0  0  0
 24 42  1  0  0  0  0
 24 43  1  0  0  0  0
 24 44  1  0  0  0  0
 25 45  1  0  0  0  0
 25 46  1  0  0  0  0
 25 47  1  0  0  0  0
M  END
> <PUBCHEM_COMPOUND_CID>
156589

> <PUBCHEM_CONFORMER_RMSD>
0.8

> <PUBCHEM_CONFORMER_DIVERSEORDER>
3
7
9
29
1
19
24
18
28
25
20
32
27
8
33
4
14
2
21
10
17
12
26
13
30
11
31
15
22
23
5
6
16

> <PUBCHEM_MMFF94_PARTIAL_CHARGES>
33
1 -0.36
10 0.42
11 -0.14
12 0.28
13 0.08
14 0.08
15 -0.15
16 -0.15
17 -0.15
18 -0.29
19 -0.15
2 -0.36
20 -0.15
21 -0.28
22 -0.15
23 0.14
24 0.14
25 0.28
3 -0.57
31 0.15
32 0.15
33 0.15
34 0.15
35 0.15
36 0.15
37 0.45
38 0.15
4 -0.53
5 0.42
6 0.06
7 0.08
8 0.09
9 -0.14

> <PUBCHEM_EFFECTIVE_ROTOR_COUNT>
4.6

> <PUBCHEM_PHARMACOPHORE_FEATURES>
8
1 1 acceptor
1 2 acceptor
1 3 acceptor
1 4 donor
3 21 23 24 hydrophobe
6 1 5 6 7 8 10 rings
6 11 16 17 19 20 22 rings
6 7 8 9 13 14 15 rings

> <PUBCHEM_HEAVY_ATOM_COUNT>
25

> <PUBCHEM_ATOM_DEF_STEREO_COUNT>
0

> <PUBCHEM_ATOM_UDEF_STEREO_COUNT>
1

> <PUBCHEM_BOND_DEF_STEREO_COUNT>
0

> <PUBCHEM_BOND_UDEF_STEREO_COUNT>
0

> <PUBCHEM_ISOTOPIC_ATOM_COUNT>
0

> <PUBCHEM_COMPONENT_COUNT>
1

> <PUBCHEM_CACTVS_TAUTO_COUNT>
9

> <PUBCHEM_CONFORMER_ID>
000263AD00000003

> <PUBCHEM_MMFF94_ENERGY>
78.4406

> <PUBCHEM_FEATURE_SELFOVERLAP>
40.626

> <PUBCHEM_SHAPE_FINGERPRINT>
10693767 8 18129648721674990839
108634 29 18192993944198099646
10906281 52 18270120244628639664
10967382 1 18412261757265321020
1100329 8 18409442605225522426
12156800 1 17620716881167614283
12236239 1 17775566442921141053
12553582 1 18268423543066680519
13140716 1 18410571833795128074
13911987 19 18114764653990960982
14787075 74 18339370656325667590
14790565 3 18338813220820759612
15209289 33 18270124508755431846
15420108 30 16980143219233118969
17138139 8 17554012801156585319
19591789 44 18411140194985050115
20028762 73 18201712933967566135
20511986 3 17774422920679411561
20691752 17 18409441488185560516
20739085 24 18264509341665034633
21197605 99 18124884718660712251
21267235 1 18272660012934463461
21304304 249 18336528449164921178
21421861 104 17758405071422521353
22182313 1 17840324529496481396
22393880 68 18338786828620473735
23558518 356 17757543432084170411
23559900 14 18270678796393053680
2748010 2 18197225960690659366
283562 15 18194689168285293672
2871803 45 18339637837297639717
3383291 50 18190176781461720298
352729 6 17836360823615511481
4409770 3 16466400255203064741
463206 1 18411419492898917831
474 4 18342451599380757289
6443956 14 18411137996189388637
9709674 26 18197216056132324919
9981440 41 16908311467296823841

> <PUBCHEM_SHAPE_MULTIPOLES>
491.01
8.54
4.78
1.22
5.91
2.45
-0.06
-0.81
-2.45
-2.33
2.39
0.33
0.85
0.85

> <PUBCHEM_SHAPE_SELFOVERLAP>
1059.705

> <PUBCHEM_SHAPE_VOLUME>
269.3

> <PUBCHEM_COORDINATE_TYPE>
2
5
10

$$$$
