44259837
  -OEChem-02172602483D

 81 85  0     1  0  0  0  0  0999 V2000
    4.2900   -1.4857    0.6848 O   0  0  0  0  0  0  0  0  0  0  0  0
   -5.0763    0.0284    0.3986 O   0  0  0  0  0  0  0  0  0  0  0  0
    8.2289   -0.4778   -0.1530 O   0  0  0  0  0  0  0  0  0  0  0  0
    3.7460    0.7494    1.1654 O   0  0  0  0  0  0  0  0  0  0  0  0
    6.9720   -2.5178    1.2457 O   0  0  0  0  0  0  0  0  0  0  0  0
   -3.6507    1.0484   -1.1643 O   0  0  0  0  0  0  0  0  0  0  0  0
    6.3671    0.1187    1.8656 O   0  0  0  0  0  0  0  0  0  0  0  0
   -7.7078    3.2367    0.2772 O   0  0  0  0  0  0  0  0  0  0  0  0
   -7.9679    0.4745    0.2871 O   0  0  0  0  0  0  0  0  0  0  0  0
   -6.3285    1.6712   -1.6054 O   0  0  0  0  0  0  0  0  0  0  0  0
   -0.6001   -0.6981   -0.0545 O   0  0  0  0  0  0  0  0  0  0  0  0
    3.0476    3.3816    0.6874 O   0  0  0  0  0  0  0  0  0  0  0  0
    0.5329    4.0072   -0.1639 O   0  0  0  0  0  0  0  0  0  0  0  0
    8.2242    1.1022   -1.8383 O   0  0  0  0  0  0  0  0  0  0  0  0
   -1.8238    3.1148   -0.8079 O   0  0  0  0  0  0  0  0  0  0  0  0
   -3.9449   -4.3900    1.4301 O   0  0  0  0  0  0  0  0  0  0  0  0
   -5.0532   -5.0428   -1.0344 O   0  0  0  0  0  0  0  0  0  0  0  0
    6.8412   -0.7139   -0.3556 C   0  0  1  0  0  0  0  0  0  0  0  0
    6.5096   -2.1817   -0.0624 C   0  0  2  0  0  0  0  0  0  0  0  0
    5.9941    0.2378    0.4914 C   0  0  1  0  0  0  0  0  0  0  0  0
    4.9929   -2.4027   -0.1672 C   0  0  1  0  0  0  0  0  0  0  0  0
   -6.6052    2.4311    0.6744 C   0  0  1  0  0  0  0  0  0  0  0  0
   -7.1061    1.0970    1.2398 C   0  0  2  0  0  0  0  0  0  0  0  0
    4.5140   -0.1176    0.3332 C   0  0  1  0  0  0  0  0  0  0  0  0
   -5.6314    2.2237   -0.4872 C   0  0  1  0  0  0  0  0  0  0  0  0
   -5.9107    0.1852    1.5562 C   0  0  1  0  0  0  0  0  0  0  0  0
   -4.5193    1.2646   -0.0563 C   0  0  1  0  0  0  0  0  0  0  0  0
    4.5661   -3.8102    0.2316 C   0  0  0  0  0  0  0  0  0  0  0  0
   -6.3272   -1.2096    2.0071 C   0  0  0  0  0  0  0  0  0  0  0  0
    2.4895    1.0617    0.7408 C   0  0  0  0  0  0  0  0  0  0  0  0
   -2.3561    0.8079   -0.7573 C   0  0  0  0  0  0  0  0  0  0  0  0
   -0.0859    1.6729   -0.1277 C   0  0  0  0  0  0  0  0  0  0  0  0
    0.2696    0.3481    0.1147 C   0  0  0  0  0  0  0  0  0  0  0  0
    8.7976    0.4613   -0.9679 C   0  0  0  0  0  0  0  0  0  0  0  0
    1.5590    0.0400    0.5498 C   0  0  0  0  0  0  0  0  0  0  0  0
   -1.4523    1.9706   -0.5841 C   0  0  0  0  0  0  0  0  0  0  0  0
    2.1320    2.3883    0.4979 C   0  0  0  0  0  0  0  0  0  0  0  0
   -1.8851   -0.4250   -0.4963 C   0  0  0  0  0  0  0  0  0  0  0  0
    0.8430    2.6990    0.0629 C   0  0  0  0  0  0  0  0  0  0  0  0
   -2.7148   -1.6352   -0.6342 C   0  0  0  0  0  0  0  0  0  0  0  0
   10.2538    0.6031   -0.6430 C   0  0  0  0  0  0  0  0  0  0  0  0
   -2.9434   -2.4533    0.4722 C   0  0  0  0  0  0  0  0  0  0  0  0
   -3.2712   -1.9629   -1.8707 C   0  0  0  0  0  0  0  0  0  0  0  0
    3.8602    3.7331   -0.4299 C   0  0  0  0  0  0  0  0  0  0  0  0
   -3.7285   -3.5990    0.3423 C   0  0  0  0  0  0  0  0  0  0  0  0
   -4.0560   -3.1086   -2.0007 C   0  0  0  0  0  0  0  0  0  0  0  0
   -4.2848   -3.9266   -0.8942 C   0  0  0  0  0  0  0  0  0  0  0  0
    6.5857   -0.5508   -1.4125 H   0  0  0  0  0  0  0  0  0  0  0  0
    7.0496   -2.8269   -0.7652 H   0  0  0  0  0  0  0  0  0  0  0  0
    6.1712    1.2827    0.2149 H   0  0  0  0  0  0  0  0  0  0  0  0
    4.6678   -2.2285   -1.2012 H   0  0  0  0  0  0  0  0  0  0  0  0
   -6.0786    2.9741    1.4696 H   0  0  0  0  0  0  0  0  0  0  0  0
   -7.7063    1.2799    2.1387 H   0  0  0  0  0  0  0  0  0  0  0  0
    4.2235    0.0317   -0.7172 H   0  0  0  0  0  0  0  0  0  0  0  0
   -5.2129    3.1781   -0.8255 H   0  0  0  0  0  0  0  0  0  0  0  0
   -5.3089    0.6363    2.3558 H   0  0  0  0  0  0  0  0  0  0  0  0
   -3.9673    1.7277    0.7756 H   0  0  0  0  0  0  0  0  0  0  0  0
    4.7324   -3.9949    1.2983 H   0  0  0  0  0  0  0  0  0  0  0  0
    5.0992   -4.5678   -0.3502 H   0  0  0  0  0  0  0  0  0  0  0  0
    3.4907   -3.9375    0.0640 H   0  0  0  0  0  0  0  0  0  0  0  0
   -6.7764   -1.7811    1.1880 H   0  0  0  0  0  0  0  0  0  0  0  0
   -7.0328   -1.1640    2.8421 H   0  0  0  0  0  0  0  0  0  0  0  0
   -5.4487   -1.7765    2.3329 H   0  0  0  0  0  0  0  0  0  0  0  0
    6.9382   -3.4853    1.3321 H   0  0  0  0  0  0  0  0  0  0  0  0
    7.3197    0.3055    1.9244 H   0  0  0  0  0  0  0  0  0  0  0  0
   -8.2878    3.3429    1.0504 H   0  0  0  0  0  0  0  0  0  0  0  0
   -8.4195   -0.2618    0.7329 H   0  0  0  0  0  0  0  0  0  0  0  0
   -7.0561    2.2790   -1.8222 H   0  0  0  0  0  0  0  0  0  0  0  0
    1.8154   -0.9958    0.7513 H   0  0  0  0  0  0  0  0  0  0  0  0
   10.3716    0.9282    0.3937 H   0  0  0  0  0  0  0  0  0  0  0  0
   10.6999    1.3571   -1.2977 H   0  0  0  0  0  0  0  0  0  0  0  0
   10.7645   -0.3487   -0.8089 H   0  0  0  0  0  0  0  0  0  0  0  0
   -2.5144   -2.1979    1.4389 H   0  0  0  0  0  0  0  0  0  0  0  0
   -3.0992   -1.3424   -2.7469 H   0  0  0  0  0  0  0  0  0  0  0  0
   -0.3826    4.0959   -0.4689 H   0  0  0  0  0  0  0  0  0  0  0  0
    4.5913    4.4767   -0.1011 H   0  0  0  0  0  0  0  0  0  0  0  0
    3.2480    4.1723   -1.2236 H   0  0  0  0  0  0  0  0  0  0  0  0
    4.3979    2.8607   -0.8135 H   0  0  0  0  0  0  0  0  0  0  0  0
   -4.4822   -3.3529   -2.9701 H   0  0  0  0  0  0  0  0  0  0  0  0
   -3.4881   -4.0055    2.1978 H   0  0  0  0  0  0  0  0  0  0  0  0
   -5.3519   -5.1078   -1.9577 H   0  0  0  0  0  0  0  0  0  0  0  0
  1 21  1  0  0  0  0
  1 24  1  0  0  0  0
  2 26  1  0  0  0  0
  2 27  1  0  0  0  0
  3 18  1  0  0  0  0
  3 34  1  0  0  0  0
  4 24  1  0  0  0  0
  4 30  1  0  0  0  0
  5 19  1  0  0  0  0
  5 64  1  0  0  0  0
  6 27  1  0  0  0  0
  6 31  1  0  0  0  0
  7 20  1  0  0  0  0
  7 65  1  0  0  0  0
  8 22  1  0  0  0  0
  8 66  1  0  0  0  0
  9 23  1  0  0  0  0
  9 67  1  0  0  0  0
 10 25  1  0  0  0  0
 10 68  1  0  0  0  0
 11 33  1  0  0  0  0
 11 38  1  0  0  0  0
 12 37  1  0  0  0  0
 12 44  1  0  0  0  0
 13 39  1  0  0  0  0
 13 75  1  0  0  0  0
 14 34  2  0  0  0  0
 15 36  2  0  0  0  0
 16 45  1  0  0  0  0
 16 80  1  0  0  0  0
 17 47  1  0  0  0  0
 17 81  1  0  0  0  0
 18 19  1  0  0  0  0
 18 20  1  0  0  0  0
 18 48  1  0  0  0  0
 19 21  1  0  0  0  0
 19 49  1  0  0  0  0
 20 24  1  0  0  0  0
 20 50  1  0  0  0  0
 21 28  1  0  0  0  0
 21 51  1  0  0  0  0
 22 23  1  0  0  0  0
 22 25  1  0  0  0  0
 22 52  1  0  0  0  0
 23 26  1  0  0  0  0
 23 53  1  0  0  0  0
 24 54  1  0  0  0  0
 25 27  1  0  0  0  0
 25 55  1  0  0  0  0
 26 29  1  0  0  0  0
 26 56  1  0  0  0  0
 27 57  1  0  0  0  0
 28 58  1  0  0  0  0
 28 59  1  0  0  0  0
 28 60  1  0  0  0  0
 29 61  1  0  0  0  0
 29 62  1  0  0  0  0
 29 63  1  0  0  0  0
 30 35  1  0  0  0  0
 30 37  2  0  0  0  0
 31 36  1  0  0  0  0
 31 38  2  0  0  0  0
 32 33  1  0  0  0  0
 32 36  1  0  0  0  0
 32 39  2  0  0  0  0
 33 35  2  0  0  0  0
 34 41  1  0  0  0  0
 35 69  1  0  0  0  0
 37 39  1  0  0  0  0
 38 40  1  0  0  0  0
 40 42  2  0  0  0  0
 40 43  1  0  0  0  0
 41 70  1  0  0  0  0
 41 71  1  0  0  0  0
 41 72  1  0  0  0  0
 42 45  1  0  0  0  0
 42 73  1  0  0  0  0
 43 46  2  0  0  0  0
 43 74  1  0  0  0  0
 44 76  1  0  0  0  0
 44 77  1  0  0  0  0
 44 78  1  0  0  0  0
 45 47  2  0  0  0  0
 46 47  1  0  0  0  0
 46 79  1  0  0  0  0
M  END
> <PUBCHEM_COMPOUND_CID>
44259837

> <PUBCHEM_CONFORMER_RMSD>
1.4

> <PUBCHEM_CONFORMER_DIVERSEORDER>
1
59
126
109
130
84
105
35
111
92
86
134
14
46
101
139
63
87
32
97
132
68
75
142
127
76
37
33
50
61
47
66
118
113
131
141
94
58
96
104
81
17
88
124
25
116
93
51
67
16
9
129
27
73
121
95
114
29
31
102
138
82
69
20
38
91
120
70
42
123
39
135
117
48
112
136
60
54
122
98
108
52
41
36
22
143
115
107
28
15
99
21
3
18
24
128
106
12
85
30
65
40
34
78
137
83
90
5
80
133
140
26
74
43
100
49
71
57
89
110
45
56
125
8
23
79
11
6
55
72
7
62
53
4
119
44
19
103
77
10
13
2
64

> <PUBCHEM_MMFF94_PARTIAL_CHARGES>
57
1 -0.56
10 -0.68
11 -0.16
12 -0.36
13 -0.53
14 -0.57
15 -0.57
16 -0.53
17 -0.53
18 0.28
19 0.28
2 -0.56
20 0.28
21 0.28
22 0.28
23 0.28
24 0.56
25 0.28
26 0.28
27 0.56
3 -0.43
30 0.08
31 0.09
32 0.09
33 0.08
34 0.66
35 -0.15
36 0.47
37 0.08
38 0.05
39 0.08
4 -0.36
40 0.03
41 0.06
42 -0.15
43 -0.15
44 0.28
45 0.08
46 -0.15
47 0.08
5 -0.68
6 -0.36
64 0.4
65 0.4
66 0.4
67 0.4
68 0.4
69 0.15
7 -0.68
73 0.15
74 0.15
75 0.45
79 0.15
8 -0.68
80 0.45
81 0.45
9 -0.68

> <PUBCHEM_EFFECTIVE_ROTOR_COUNT>
10.4

> <PUBCHEM_PHARMACOPHORE_FEATURES>
26
1 1 acceptor
1 10 acceptor
1 10 donor
1 11 acceptor
1 12 acceptor
1 13 donor
1 14 acceptor
1 15 acceptor
1 16 donor
1 17 donor
1 2 acceptor
1 4 acceptor
1 5 acceptor
1 5 donor
1 6 acceptor
1 7 acceptor
1 7 donor
1 8 acceptor
1 8 donor
1 9 acceptor
1 9 donor
6 1 18 19 20 21 24 rings
6 11 31 32 33 36 38 rings
6 2 22 23 25 26 27 rings
6 30 32 33 35 37 39 rings
6 40 42 43 45 46 47 rings

> <PUBCHEM_HEAVY_ATOM_COUNT>
47

> <PUBCHEM_ATOM_DEF_STEREO_COUNT>
6

> <PUBCHEM_ATOM_UDEF_STEREO_COUNT>
4

> <PUBCHEM_BOND_DEF_STEREO_COUNT>
0

> <PUBCHEM_BOND_UDEF_STEREO_COUNT>
0

> <PUBCHEM_ISOTOPIC_ATOM_COUNT>
0

> <PUBCHEM_COMPONENT_COUNT>
1

> <PUBCHEM_CACTVS_TAUTO_COUNT>
57

> <PUBCHEM_CONFORMER_ID>
02A359FD00000001

> <PUBCHEM_MMFF94_ENERGY>
164.0801

> <PUBCHEM_FEATURE_SELFOVERLAP>
132.151

> <PUBCHEM_SHAPE_FINGERPRINT>
10050765 1 18268425913746638225
10290309 65 18192423065824532271
10580692 12 18412546530845525971
11103572 155 18260269616233050050
11387372 6 17895198848520829171
117089 54 18266459995694114302
12107183 9 18342460331339167409
14394314 77 18411420618327756678
14400156 162 18261966142001270697
15064986 96 17774735236971912463
15361156 5 18260551147207020692
15392192 29 18343023281071198588
15890870 6 18268426842388443681
15911013 46 18271803511020941408
18608769 82 18113903740675838320
19301679 30 18124034800483311015
20105231 36 18334301933180246114
21795232 338 18411420656391709714
22311459 1 18339075982550647340
23559900 14 18340471336137276392
24771750 20 17897180220145921724
249057 3 18412260631941905805
335352 9 18412538791414997389
335507 130 18114468937424623980
3504750 166 17915175952627327743
4017518 198 17989205928442918639
4073 2 18340197579279743042
4144715 1 18264208178652392459
4149490 64 17168425966407780674
5104073 3 18197486523002465249
6086070 43 16630234896596951123
6523845 18 14418138439222098764
6691757 9 17346886641770553787

> <PUBCHEM_SHAPE_MULTIPOLES>
867.46
26.14
5.43
1.42
34.93
3.35
0.04
0.51
-0.43
-5.64
0.65
-1.12
0.57
-1.44

> <PUBCHEM_SHAPE_SELFOVERLAP>
1883.851

> <PUBCHEM_SHAPE_VOLUME>
465.8

> <PUBCHEM_COORDINATE_TYPE>
2
5
10

$$$$
