131752172
  -OEChem-02172602323D

 68 72  0     1  0  0  0  0  0999 V2000
   -3.8028   -0.1626   -0.4275 O   0  0  0  0  0  0  0  0  0  0  0  0
   -7.0132    1.2585   -1.5092 O   0  0  0  0  0  0  0  0  0  0  0  0
   -7.7736   -1.3313   -0.4801 O   0  0  0  0  0  0  0  0  0  0  0  0
   -3.2705   -1.8023    1.1654 O   0  0  0  0  0  0  0  0  0  0  0  0
   -5.2771   -2.5691   -0.5978 O   0  0  0  0  0  0  0  0  0  0  0  0
   -2.8682    2.1185   -1.6431 O   0  0  0  0  0  0  0  0  0  0  0  0
    1.4243   -1.6732    0.4227 O   0  0  0  0  0  0  0  0  0  0  0  0
   -0.6069    1.0623    3.8705 O   0  0  0  0  0  0  0  0  0  0  0  0
   -1.7587    0.1829   -2.2435 O   0  0  0  0  0  0  0  0  0  0  0  0
    1.9716    1.0717    3.3833 O   0  0  0  0  0  0  0  0  0  0  0  0
    6.8216   -3.2958   -2.4369 O   0  0  0  0  0  0  0  0  0  0  0  0
    5.3986    3.9219    0.3399 O   0  0  0  0  0  0  0  0  0  0  0  0
   -6.0828    0.2187   -1.2188 C   0  0  2  0  0  0  0  0  0  0  0  0
   -6.6109   -0.6253   -0.0559 C   0  0  2  0  0  0  0  0  0  0  0  0
   -4.7276    0.8420   -0.8564 C   0  0  2  0  0  0  0  0  0  0  0  0
   -5.5470   -1.6097    0.4292 C   0  0  2  0  0  0  0  0  0  0  0  0
   -4.2502   -0.8615    0.7365 C   0  0  2  0  0  0  0  0  0  0  0  0
   -4.1045    1.5606   -2.0489 C   0  0  0  0  0  0  0  0  0  0  0  0
   -2.0391   -1.3013    1.4939 C   0  0  0  0  0  0  0  0  0  0  0  0
   -0.9057   -1.7282    0.8013 C   0  0  0  0  0  0  0  0  0  0  0  0
   -1.9205   -0.3643    2.5216 C   0  0  0  0  0  0  0  0  0  0  0  0
    0.3472   -1.2159    1.1388 C   0  0  0  0  0  0  0  0  0  0  0  0
   -1.7700    1.3185   -1.7957 C   0  0  0  0  0  0  0  0  0  0  0  0
    0.4637   -0.2798    2.1650 C   0  0  0  0  0  0  0  0  0  0  0  0
   -0.6686    0.1502    2.8609 C   0  0  0  0  0  0  0  0  0  0  0  0
    1.7965    0.2454    2.4985 C   0  0  0  0  0  0  0  0  0  0  0  0
   -0.5836    2.0668   -1.3223 C   0  0  0  0  0  0  0  0  0  0  0  0
    2.6835   -1.1881    0.7416 C   0  0  0  0  0  0  0  0  0  0  0  0
    2.9232   -0.2810    1.7018 C   0  0  0  0  0  0  0  0  0  0  0  0
    3.7689   -1.7426   -0.0921 C   0  0  0  0  0  0  0  0  0  0  0  0
    0.6251    1.4887   -1.3708 C   0  0  0  0  0  0  0  0  0  0  0  0
    5.0573   -1.8613    0.4291 C   0  0  0  0  0  0  0  0  0  0  0  0
    3.5062   -2.1463   -1.4011 C   0  0  0  0  0  0  0  0  0  0  0  0
    1.8759    2.1251   -0.9215 C   0  0  0  0  0  0  0  0  0  0  0  0
    6.0831   -2.3835   -0.3588 C   0  0  0  0  0  0  0  0  0  0  0  0
    4.5319   -2.6685   -2.1891 C   0  0  0  0  0  0  0  0  0  0  0  0
    5.8203   -2.7870   -1.6679 C   0  0  0  0  0  0  0  0  0  0  0  0
    1.8312    3.2060   -0.0409 C   0  0  0  0  0  0  0  0  0  0  0  0
    3.1045    1.6477   -1.3778 C   0  0  0  0  0  0  0  0  0  0  0  0
    3.0149    3.8097    0.3832 C   0  0  0  0  0  0  0  0  0  0  0  0
    4.2883    2.2513   -0.9538 C   0  0  0  0  0  0  0  0  0  0  0  0
    4.2436    3.3322   -0.0734 C   0  0  0  0  0  0  0  0  0  0  0  0
   -6.0013   -0.3996   -2.1204 H   0  0  0  0  0  0  0  0  0  0  0  0
   -6.9185    0.0315    0.7672 H   0  0  0  0  0  0  0  0  0  0  0  0
   -4.8394    1.5722   -0.0430 H   0  0  0  0  0  0  0  0  0  0  0  0
   -5.8988   -2.1770    1.2970 H   0  0  0  0  0  0  0  0  0  0  0  0
   -4.4426   -0.1402    1.5413 H   0  0  0  0  0  0  0  0  0  0  0  0
   -4.7447    2.3840   -2.3824 H   0  0  0  0  0  0  0  0  0  0  0  0
   -3.9728    0.8868   -2.9045 H   0  0  0  0  0  0  0  0  0  0  0  0
   -7.0928    1.8202   -0.7195 H   0  0  0  0  0  0  0  0  0  0  0  0
   -8.0810   -1.8663    0.2714 H   0  0  0  0  0  0  0  0  0  0  0  0
   -4.7818   -2.1268   -1.3076 H   0  0  0  0  0  0  0  0  0  0  0  0
   -1.0016   -2.4566    0.0002 H   0  0  0  0  0  0  0  0  0  0  0  0
   -2.7963   -0.0396    3.0776 H   0  0  0  0  0  0  0  0  0  0  0  0
   -0.7494    3.0740   -0.9585 H   0  0  0  0  0  0  0  0  0  0  0  0
    3.9040    0.1190    1.9304 H   0  0  0  0  0  0  0  0  0  0  0  0
    0.3076    1.3506    4.0129 H   0  0  0  0  0  0  0  0  0  0  0  0
    0.7348    0.4827   -1.7695 H   0  0  0  0  0  0  0  0  0  0  0  0
    5.2979   -1.5788    1.4504 H   0  0  0  0  0  0  0  0  0  0  0  0
    2.5141   -2.0560   -1.8364 H   0  0  0  0  0  0  0  0  0  0  0  0
    7.0839   -2.4777    0.0537 H   0  0  0  0  0  0  0  0  0  0  0  0
    4.3150   -2.9770   -3.2083 H   0  0  0  0  0  0  0  0  0  0  0  0
    0.8996    3.5969    0.3573 H   0  0  0  0  0  0  0  0  0  0  0  0
    3.1573    0.8154   -2.0744 H   0  0  0  0  0  0  0  0  0  0  0  0
    2.9745    4.6481    1.0732 H   0  0  0  0  0  0  0  0  0  0  0  0
    5.2387    1.8706   -1.3181 H   0  0  0  0  0  0  0  0  0  0  0  0
    6.4626   -3.5222   -3.3120 H   0  0  0  0  0  0  0  0  0  0  0  0
    6.1510    3.4638   -0.0725 H   0  0  0  0  0  0  0  0  0  0  0  0
  1 15  1  0  0  0  0
  1 17  1  0  0  0  0
  2 13  1  0  0  0  0
  2 50  1  0  0  0  0
  3 14  1  0  0  0  0
  3 51  1  0  0  0  0
  4 17  1  0  0  0  0
  4 19  1  0  0  0  0
  5 16  1  0  0  0  0
  5 52  1  0  0  0  0
  6 18  1  0  0  0  0
  6 23  1  0  0  0  0
  7 22  1  0  0  0  0
  7 28  1  0  0  0  0
  8 25  1  0  0  0  0
  8 57  1  0  0  0  0
  9 23  2  0  0  0  0
 10 26  2  0  0  0  0
 11 37  1  0  0  0  0
 11 67  1  0  0  0  0
 12 42  1  0  0  0  0
 12 68  1  0  0  0  0
 13 14  1  0  0  0  0
 13 15  1  0  0  0  0
 13 43  1  0  0  0  0
 14 16  1  0  0  0  0
 14 44  1  0  0  0  0
 15 18  1  0  0  0  0
 15 45  1  0  0  0  0
 16 17  1  0  0  0  0
 16 46  1  0  0  0  0
 17 47  1  0  0  0  0
 18 48  1  0  0  0  0
 18 49  1  0  0  0  0
 19 20  1  0  0  0  0
 19 21  2  0  0  0  0
 20 22  2  0  0  0  0
 20 53  1  0  0  0  0
 21 25  1  0  0  0  0
 21 54  1  0  0  0  0
 22 24  1  0  0  0  0
 23 27  1  0  0  0  0
 24 25  2  0  0  0  0
 24 26  1  0  0  0  0
 26 29  1  0  0  0  0
 27 31  2  0  0  0  0
 27 55  1  0  0  0  0
 28 29  2  0  0  0  0
 28 30  1  0  0  0  0
 29 56  1  0  0  0  0
 30 32  2  0  0  0  0
 30 33  1  0  0  0  0
 31 34  1  0  0  0  0
 31 58  1  0  0  0  0
 32 35  1  0  0  0  0
 32 59  1  0  0  0  0
 33 36  2  0  0  0  0
 33 60  1  0  0  0  0
 34 38  2  0  0  0  0
 34 39  1  0  0  0  0
 35 37  2  0  0  0  0
 35 61  1  0  0  0  0
 36 37  1  0  0  0  0
 36 62  1  0  0  0  0
 38 40  1  0  0  0  0
 38 63  1  0  0  0  0
 39 41  2  0  0  0  0
 39 64  1  0  0  0  0
 40 42  2  0  0  0  0
 40 65  1  0  0  0  0
 41 42  1  0  0  0  0
 41 66  1  0  0  0  0
M  END
> <PUBCHEM_COMPOUND_CID>
131752172

> <PUBCHEM_CONFORMER_RMSD>
1.4

> <PUBCHEM_CONFORMER_DIVERSEORDER>
1
41
26
123
43
103
9
111
129
124
13
133
70
112
63
57
132
10
77
16
85
50
28
49
54
27
53
48
135
62
18
76
69
97
106
30
130
115
75
32
3
95
74
81
22
12
125
131
20
128
102
35
47
17
67
113
141
8
78
122
31
14
24
126
87
58
93
38
143
72
148
21
100
110
19
52
2
64
145
120
33
139
7
127
34
134
29
92
107
44
89
147
104
5
82
140
6
15
144
86
116
109
46
101
39
146
4
56
83
37
84
117
25
45
40
51
65
94
55
105
23
73
121
91
90
114
98
68
99
96
71
79
11
118
138
61
66
88
42
36
119
137
108
59
142
80
136
60

> <PUBCHEM_MMFF94_PARTIAL_CHARGES>
61
1 -0.56
10 -0.57
11 -0.53
12 -0.53
13 0.28
14 0.28
15 0.28
16 0.28
17 0.56
18 0.28
19 0.08
2 -0.68
20 -0.15
21 -0.15
22 0.08
23 0.71
24 0.09
25 0.08
26 0.47
27 -0.14
28 0.05
29 -0.14
3 -0.68
30 0.03
31 -0.18
32 -0.15
33 -0.15
34 0.03
35 -0.15
36 -0.15
37 0.08
38 -0.15
39 -0.15
4 -0.36
40 -0.15
41 -0.15
42 0.08
5 -0.68
50 0.4
51 0.4
52 0.4
53 0.15
54 0.15
55 0.15
56 0.15
57 0.45
58 0.15
59 0.15
6 -0.43
60 0.15
61 0.15
62 0.15
63 0.15
64 0.15
65 0.15
66 0.15
67 0.45
68 0.45
7 -0.16
8 -0.53
9 -0.57

> <PUBCHEM_EFFECTIVE_ROTOR_COUNT>
9.2

> <PUBCHEM_PHARMACOPHORE_FEATURES>
19
1 1 acceptor
1 10 acceptor
1 11 donor
1 12 donor
1 2 acceptor
1 2 donor
1 3 acceptor
1 3 donor
1 4 acceptor
1 5 acceptor
1 5 donor
1 7 acceptor
1 8 donor
1 9 acceptor
6 1 13 14 15 16 17 rings
6 19 20 21 22 24 25 rings
6 30 32 33 35 36 37 rings
6 34 38 39 40 41 42 rings
6 7 22 24 26 28 29 rings

> <PUBCHEM_HEAVY_ATOM_COUNT>
42

> <PUBCHEM_ATOM_DEF_STEREO_COUNT>
0

> <PUBCHEM_ATOM_UDEF_STEREO_COUNT>
5

> <PUBCHEM_BOND_DEF_STEREO_COUNT>
1

> <PUBCHEM_BOND_UDEF_STEREO_COUNT>
0

> <PUBCHEM_ISOTOPIC_ATOM_COUNT>
0

> <PUBCHEM_COMPONENT_COUNT>
1

> <PUBCHEM_CACTVS_TAUTO_COUNT>
96

> <PUBCHEM_CONFORMER_ID>
07DA60EC00000001

> <PUBCHEM_MMFF94_ENERGY>
131.7627

> <PUBCHEM_FEATURE_SELFOVERLAP>
96.527

> <PUBCHEM_SHAPE_FINGERPRINT>
11513181 2 18193272120856094575
12166972 35 18130510751601968282
12422481 6 17678714934021863656
12633046 712 17631720686454292263
13617811 41 15863787297031774029
13782708 43 18201427108959240815
14068700 675 18059304149783965898
15001296 14 17531523300100932125
15219462 58 17773607193955309480
15219648 73 17560533887965432135
15721738 202 18201998803312277484
15968369 153 17895195545537620205
17492 54 16951133845904964205
17909252 39 18334581204954492398
18365409 1 17483973579085294697
19304144 158 18049156971339388352
20609170 92 17533245114283625884
20642791 35 17967803917644289749
20691752 17 16009018489003944821
20775438 99 18191857023384297398
21057603 40 18130503051058612207
2132832 1 17987817223760516928
22393880 68 17677039153947125669
3388396 114 18057626415273392112
4066623 53 18186519882869547892
4093350 32 18411695517224493673
437795 70 17895483539536052318
44802255 64 17326359000420158748
46194498 28 18411134753425386766
508180 173 18040724614813281272
508706 21 17312827095192567025
513202 73 16271083683675259191
513532 50 18261108629693597472
6823239 73 18260537892695482024

> <PUBCHEM_SHAPE_MULTIPOLES>
793.91
15.85
4.17
2.99
14.64
2.6
-2.02
-7.87
9.77
-7.3
1.46
-0.88
-0.25
4

> <PUBCHEM_SHAPE_SELFOVERLAP>
1745.636

> <PUBCHEM_SHAPE_VOLUME>
423.2

> <PUBCHEM_COORDINATE_TYPE>
2
5
10

$$$$
