541568
  -OEChem-02172602543D

 41 40  0     1  0  0  0  0  0999 V2000
    0.1304    1.9306    0.1792 O   0  0  0  0  0  0  0  0  0  0  0  0
   -0.9699   -1.5476    0.0898 O   0  0  0  0  0  0  0  0  0  0  0  0
    1.4653   -1.2603   -0.9863 O   0  0  0  0  0  0  0  0  0  0  0  0
   -2.9041    0.4034   -0.4198 O   0  0  0  0  0  0  0  0  0  0  0  0
    2.2004   -1.0581    1.6278 O   0  0  0  0  0  0  0  0  0  0  0  0
    1.4638    2.5238   -1.6115 O   0  0  0  0  0  0  0  0  0  0  0  0
   -1.8731   -2.3986    2.0383 O   0  0  0  0  0  0  0  0  0  0  0  0
    3.7719   -1.3863   -1.0161 O   0  0  0  0  0  0  0  0  0  0  0  0
   -4.7612    1.3112    0.6117 O   0  0  0  0  0  0  0  0  0  0  0  0
    3.8112    1.9033    1.5881 N   0  0  0  0  0  0  0  0  0  0  0  0
    0.0996    0.5747   -0.2887 C   0  0  2  0  0  0  0  0  0  0  0  0
   -0.8237   -0.2314    0.6406 C   0  0  1  0  0  0  0  0  0  0  0  0
    1.5363    0.0511   -0.4279 C   0  0  1  0  0  0  0  0  0  0  0  0
   -2.2233    0.3510    0.8281 C   0  0  0  0  0  0  0  0  0  0  0  0
    2.2728   -0.0805    0.8938 C   0  0  0  0  0  0  0  0  0  0  0  0
    0.8534    2.7944   -0.5861 C   0  0  0  0  0  0  0  0  0  0  0  0
   -1.7341   -2.4044    0.8227 C   0  0  0  0  0  0  0  0  0  0  0  0
    2.6656   -1.8632   -1.2303 C   0  0  0  0  0  0  0  0  0  0  0  0
   -4.1739    0.9087   -0.3835 C   0  0  0  0  0  0  0  0  0  0  0  0
    0.7957    4.1641    0.0196 C   0  0  0  0  0  0  0  0  0  0  0  0
    3.1252    1.0208    1.2771 C   0  0  0  0  0  0  0  0  0  0  0  0
   -2.4019   -3.3845   -0.0937 C   0  0  0  0  0  0  0  0  0  0  0  0
    2.4373   -3.2257   -1.8115 C   0  0  0  0  0  0  0  0  0  0  0  0
   -4.7635    0.9036   -1.7613 C   0  0  0  0  0  0  0  0  0  0  0  0
   -0.3569    0.5633   -1.2891 H   0  0  0  0  0  0  0  0  0  0  0  0
   -0.3581   -0.3019    1.6314 H   0  0  0  0  0  0  0  0  0  0  0  0
    2.1698    0.6217   -1.1049 H   0  0  0  0  0  0  0  0  0  0  0  0
   -2.8260   -0.2284    1.5343 H   0  0  0  0  0  0  0  0  0  0  0  0
   -2.1448    1.3676    1.2327 H   0  0  0  0  0  0  0  0  0  0  0  0
    1.3886    4.8541   -0.5876 H   0  0  0  0  0  0  0  0  0  0  0  0
   -0.2384    4.5170    0.0395 H   0  0  0  0  0  0  0  0  0  0  0  0
    1.2149    4.1415    1.0287 H   0  0  0  0  0  0  0  0  0  0  0  0
   -3.0047   -4.0804    0.4968 H   0  0  0  0  0  0  0  0  0  0  0  0
   -3.0603   -2.8542   -0.7864 H   0  0  0  0  0  0  0  0  0  0  0  0
   -1.6468   -3.9553   -0.6399 H   0  0  0  0  0  0  0  0  0  0  0  0
    1.9088   -3.1381   -2.7639 H   0  0  0  0  0  0  0  0  0  0  0  0
    1.8654   -3.8366   -1.1085 H   0  0  0  0  0  0  0  0  0  0  0  0
    3.4013   -3.7104   -1.9898 H   0  0  0  0  0  0  0  0  0  0  0  0
   -4.8085   -0.1204   -2.1407 H   0  0  0  0  0  0  0  0  0  0  0  0
   -4.1638    1.5337   -2.4228 H   0  0  0  0  0  0  0  0  0  0  0  0
   -5.7799    1.3060   -1.7227 H   0  0  0  0  0  0  0  0  0  0  0  0
  1 11  1  0  0  0  0
  1 16  1  0  0  0  0
  2 12  1  0  0  0  0
  2 17  1  0  0  0  0
  3 13  1  0  0  0  0
  3 18  1  0  0  0  0
  4 14  1  0  0  0  0
  4 19  1  0  0  0  0
  5 15  2  0  0  0  0
  6 16  2  0  0  0  0
  7 17  2  0  0  0  0
  8 18  2  0  0  0  0
  9 19  2  0  0  0  0
 10 21  3  0  0  0  0
 11 12  1  0  0  0  0
 11 13  1  0  0  0  0
 11 25  1  0  0  0  0
 12 14  1  0  0  0  0
 12 26  1  0  0  0  0
 13 15  1  0  0  0  0
 13 27  1  0  0  0  0
 14 28  1  0  0  0  0
 14 29  1  0  0  0  0
 15 21  1  0  0  0  0
 16 20  1  0  0  0  0
 17 22  1  0  0  0  0
 18 23  1  0  0  0  0
 19 24  1  0  0  0  0
 20 30  1  0  0  0  0
 20 31  1  0  0  0  0
 20 32  1  0  0  0  0
 22 33  1  0  0  0  0
 22 34  1  0  0  0  0
 22 35  1  0  0  0  0
 23 36  1  0  0  0  0
 23 37  1  0  0  0  0
 23 38  1  0  0  0  0
 24 39  1  0  0  0  0
 24 40  1  0  0  0  0
 24 41  1  0  0  0  0
M  END
> <PUBCHEM_COMPOUND_CID>
541568

> <PUBCHEM_CONFORMER_RMSD>
1.2

> <PUBCHEM_CONFORMER_DIVERSEORDER>
2
50
10
560
82
61
579
58
184
434
326
94
360
192
275
315
389
575
171
498
531
241
33
35
440
544
46
254
590
290
380
31
40
316
571
429
339
341
454
436
216
8
45
21
343
156
163
146
299
237
145
321
344
396
455
583
108
96
311
139
141
109
270
86
253
368
352
556
9
364
243
584
399
520
164
338
276
400
77
453
248
475
325
37
416
74
521
598
110
335
20
609
233
5
317
281
107
507
88
541
361
533
101
264
90
168
24
564
140
126
348
3
182
177
26
122
514
186
15
100
362
6
175
280
18
449
537
351
603
12
256
450
517
331
419
133
347
312
534
30
97
491
119
251
255
60
594
223
525
172
201
218
466
32
554
448
121
176
196
292
85
215
226
159
356
405
113
512
205
137
4
93
162
441
407
179
148
73
23
250
76
515
208
566
36
11
118
289
460
149
153
236
526
132
294
68
25
28
406
151
1
34
371
198
570
22
563
170
574
502
480
154
543
64
523
155
486
81
104
414
14
174
66
27
252
75
433
131
147
71
84
611
105
274
381
52
98
87
188
79
128
231
49

> <PUBCHEM_MMFF94_PARTIAL_CHARGES>
24
1 -0.43
10 -0.56
11 0.28
12 0.28
13 0.34
14 0.28
15 0.61
16 0.66
17 0.66
18 0.66
19 0.66
2 -0.43
20 0.06
21 0.45
22 0.06
23 0.06
24 0.06
3 -0.43
4 -0.43
5 -0.57
6 -0.57
7 -0.57
8 -0.57
9 -0.57

> <PUBCHEM_EFFECTIVE_ROTOR_COUNT>
12

> <PUBCHEM_PHARMACOPHORE_FEATURES>
6
1 10 acceptor
1 5 acceptor
1 6 acceptor
1 7 acceptor
1 8 acceptor
1 9 acceptor

> <PUBCHEM_HEAVY_ATOM_COUNT>
24

> <PUBCHEM_ATOM_DEF_STEREO_COUNT>
0

> <PUBCHEM_ATOM_UDEF_STEREO_COUNT>
3

> <PUBCHEM_BOND_DEF_STEREO_COUNT>
0

> <PUBCHEM_BOND_UDEF_STEREO_COUNT>
0

> <PUBCHEM_ISOTOPIC_ATOM_COUNT>
0

> <PUBCHEM_COMPONENT_COUNT>
1

> <PUBCHEM_CACTVS_TAUTO_COUNT>
2

> <PUBCHEM_CONFORMER_ID>
0008438000000002

> <PUBCHEM_MMFF94_ENERGY>
46.9812

> <PUBCHEM_FEATURE_SELFOVERLAP>
30.453

> <PUBCHEM_SHAPE_FINGERPRINT>
10906281 52 18410014333976272896
11680986 33 18342464763159867090
12633257 1 17969757826552166280
12788726 201 18048604724708368214
13140716 1 18119243110875051289
13149001 5 18334584546581577471
13544592 271 18269826661347408889
14022347 108 18116162077408687946
14178342 30 18271254935642168386
14223421 5 17902525014085306179
16752209 62 17825672144647925711
17357779 13 18195526991281038300
17980427 23 18123161740245879352
18186145 218 18336546019696605061
20600515 1 18041547079823775856
20832881 197 17839751365530483883
21069387 34 17203331065988940895
21285901 2 17983025448506710118
21501502 16 17898849312391037073
22182313 1 18270130118083284918
23558518 356 17826227686373637673
23559900 14 18412550903354075518
2748010 2 18340781415353591686
3060560 45 18116694263207628847
3286 77 16987426500071462458
3380486 77 17823408297572515536
350125 39 17973159823013346665
5845 1 16553439304917387158
59554788 191 18122893489473466368
59554788 248 17910399720674157798
633830 44 18199743653460979097
81228 2 18121229683826039784
9709674 26 18339359790000567871
9971528 1 18270677572079656005
9981440 41 17769354352115883761

> <PUBCHEM_SHAPE_MULTIPOLES>
436.1
7.15
4.35
1.67
6.12
0.46
0
0.77
0.83
-1.29
0.86
-0.5
-0.56
2.11

> <PUBCHEM_SHAPE_SELFOVERLAP>
872.148

> <PUBCHEM_SHAPE_VOLUME>
250.9

> <PUBCHEM_COORDINATE_TYPE>
2
5
10

$$$$
