15233950
  -OEChem-02172602313D

 31 33  0     0  0  0  0  0  0999 V2000
    0.3989    0.9299    0.0019 O   0  0  0  0  0  0  0  0  0  0  0  0
   -3.4952   -1.9462   -0.0029 O   0  0  0  0  0  0  0  0  0  0  0  0
    1.6941   -2.5211    0.0176 O   0  0  0  0  0  0  0  0  0  0  0  0
   -5.0843    0.2708   -0.0009 O   0  0  0  0  0  0  0  0  0  0  0  0
   -1.0648   -2.8729    0.0063 O   0  0  0  0  0  0  0  0  0  0  0  0
   -3.9588    2.7961    0.0010 O   0  0  0  0  0  0  0  0  0  0  0  0
   -1.5184   -0.5585   -0.0015 C   0  0  0  0  0  0  0  0  0  0  0  0
   -0.9552    0.7156   -0.0002 C   0  0  0  0  0  0  0  0  0  0  0  0
    1.2425   -0.1696   -0.0101 C   0  0  0  0  0  0  0  0  0  0  0  0
   -0.6283   -1.7295    0.0002 C   0  0  0  0  0  0  0  0  0  0  0  0
   -2.9066   -0.7164   -0.0022 C   0  0  0  0  0  0  0  0  0  0  0  0
    0.8278   -1.4496   -0.0035 C   0  0  0  0  0  0  0  0  0  0  0  0
    2.6690    0.2003   -0.0053 C   0  0  0  0  0  0  0  0  0  0  0  0
   -1.7781    1.8424    0.0008 C   0  0  0  0  0  0  0  0  0  0  0  0
   -3.7275    0.4121   -0.0015 C   0  0  0  0  0  0  0  0  0  0  0  0
   -3.1646    1.6889    0.0000 C   0  0  0  0  0  0  0  0  0  0  0  0
    3.3511    0.3675   -1.2109 C   0  0  0  0  0  0  0  0  0  0  0  0
    3.3386    0.3845    1.2048 C   0  0  0  0  0  0  0  0  0  0  0  0
    4.7012    0.7182   -1.2065 C   0  0  0  0  0  0  0  0  0  0  0  0
    4.6887    0.7353    1.2094 C   0  0  0  0  0  0  0  0  0  0  0  0
    5.3699    0.9022    0.0036 C   0  0  0  0  0  0  0  0  0  0  0  0
   -1.3414    2.8379    0.0022 H   0  0  0  0  0  0  0  0  0  0  0  0
    2.8432    0.2282   -2.1622 H   0  0  0  0  0  0  0  0  0  0  0  0
    2.8210    0.2585    2.1527 H   0  0  0  0  0  0  0  0  0  0  0  0
    5.2317    0.8483   -2.1452 H   0  0  0  0  0  0  0  0  0  0  0  0
    5.2096    0.8787    2.1515 H   0  0  0  0  0  0  0  0  0  0  0  0
    6.4210    1.1754    0.0070 H   0  0  0  0  0  0  0  0  0  0  0  0
   -2.8268   -2.6477   -0.0111 H   0  0  0  0  0  0  0  0  0  0  0  0
    2.6113   -2.2036    0.0165 H   0  0  0  0  0  0  0  0  0  0  0  0
   -5.2939   -0.6794   -0.0018 H   0  0  0  0  0  0  0  0  0  0  0  0
   -4.8876    2.5061    0.0003 H   0  0  0  0  0  0  0  0  0  0  0  0
  1  8  1  0  0  0  0
  1  9  1  0  0  0  0
  2 11  1  0  0  0  0
  2 28  1  0  0  0  0
  3 12  1  0  0  0  0
  3 29  1  0  0  0  0
  4 15  1  0  0  0  0
  4 30  1  0  0  0  0
  5 10  2  0  0  0  0
  6 16  1  0  0  0  0
  6 31  1  0  0  0  0
  7  8  2  0  0  0  0
  7 10  1  0  0  0  0
  7 11  1  0  0  0  0
  8 14  1  0  0  0  0
  9 12  2  0  0  0  0
  9 13  1  0  0  0  0
 10 12  1  0  0  0  0
 11 15  2  0  0  0  0
 13 17  2  0  0  0  0
 13 18  1  0  0  0  0
 14 16  2  0  0  0  0
 14 22  1  0  0  0  0
 15 16  1  0  0  0  0
 17 19  1  0  0  0  0
 17 23  1  0  0  0  0
 18 20  2  0  0  0  0
 18 24  1  0  0  0  0
 19 21  2  0  0  0  0
 19 25  1  0  0  0  0
 20 21  1  0  0  0  0
 20 26  1  0  0  0  0
 21 27  1  0  0  0  0
M  END
> <PUBCHEM_COMPOUND_CID>
15233950

> <PUBCHEM_CONFORMER_RMSD>
0.6

> <PUBCHEM_CONFORMER_DIVERSEORDER>
1

> <PUBCHEM_MMFF94_PARTIAL_CHARGES>
31
1 -0.16
10 0.47
11 0.08
12 0.09
13 0.03
14 -0.15
15 0.08
16 0.08
17 -0.15
18 -0.15
19 -0.15
2 -0.53
20 -0.15
21 -0.15
22 0.15
23 0.15
24 0.15
25 0.15
26 0.15
27 0.15
28 0.45
29 0.45
3 -0.53
30 0.45
31 0.45
4 -0.53
5 -0.57
6 -0.53
7 0.09
8 0.08
9 0.05

> <PUBCHEM_EFFECTIVE_ROTOR_COUNT>
1

> <PUBCHEM_PHARMACOPHORE_FEATURES>
9
1 1 acceptor
1 2 donor
1 3 donor
1 4 donor
1 5 acceptor
1 6 donor
6 1 7 8 9 10 12 rings
6 13 17 18 19 20 21 rings
6 7 8 11 14 15 16 rings

> <PUBCHEM_HEAVY_ATOM_COUNT>
21

> <PUBCHEM_ATOM_DEF_STEREO_COUNT>
0

> <PUBCHEM_ATOM_UDEF_STEREO_COUNT>
0

> <PUBCHEM_BOND_DEF_STEREO_COUNT>
0

> <PUBCHEM_BOND_UDEF_STEREO_COUNT>
0

> <PUBCHEM_ISOTOPIC_ATOM_COUNT>
0

> <PUBCHEM_COMPONENT_COUNT>
1

> <PUBCHEM_CACTVS_TAUTO_COUNT>
57

> <PUBCHEM_CONFORMER_ID>
00E8739E00000001

> <PUBCHEM_MMFF94_ENERGY>
64.0894

> <PUBCHEM_FEATURE_SELFOVERLAP>
45.71

> <PUBCHEM_SHAPE_FINGERPRINT>
10319926 262 18270098224557667208
10411042 1 17617941769321982531
10493431 412 18340495465564212801
10498660 4 18341050726951362504
10646746 165 18413668020000173592
10670039 82 18262248720431206900
11132069 177 18410575093263595525
12107183 9 17683509651001032568
12173636 292 18339638949799625533
12236239 1 17749387113960524908
12390115 104 18200889365857253897
12403259 415 18131351938432526144
12403814 3 17458338645971731277
12596602 18 17023187162261201056
12788726 201 17391367569187456186
12916748 109 18411142445584979472
12969540 114 17489860531669317317
13140716 1 17976824503779466051
14790565 3 18337682982844012773
15042514 8 18192998334087238211
15196674 1 18338517426548794663
15536298 74 18341051800724562230
16087824 20 18412541021689498879
16752209 62 18337952402205583026
16945 1 18338517546570794439
1813 80 16951396621744263162
18186145 218 17775008985624028680
200 152 15140951881247018568
20510252 161 18272091612329953032
20645477 56 18341334469775806728
20645477 70 16558480716676906036
22182313 1 18268733682581836935
23175994 123 17060344053799283984
23227448 37 18198621219123557964
23366157 5 17970068838224933346
23402539 116 18340761641118043142
23557571 272 18200888356059345774
23559900 14 18055066567440830642
2748010 2 18338243639511140799
2916195 48 18131060589468608800
34934 24 18411130317177584263
350125 39 18409733993292824057
4028521 119 18131633374348329496
469060 322 18264510514612171385
474 4 17676212372689559724
495365 180 17346310497730281470
4990 188 17846504712267153716
5104073 3 18264775350938331345
58051976 378 18411982451157307445
59755656 215 18340492167182258462
7064713 232 18335138661624273300
7364860 26 18126846002237743622
77492 1 17604142740264431010
7808743 9 18337391651560533168
9709674 26 18342464763592825814
9981440 41 18334295357548659315

> <PUBCHEM_SHAPE_MULTIPOLES>
396.95
10.16
2.37
0.89
4.44
0.82
0
-4.58
0.01
-2.34
-0.01
1.22
-0.15
0.01

> <PUBCHEM_SHAPE_SELFOVERLAP>
891.022

> <PUBCHEM_SHAPE_VOLUME>
208.3

> <PUBCHEM_COORDINATE_TYPE>
2
5
10

$$$$
