108906
  -OEChem-02172602523D

 24 25  0     0  0  0  0  0  0999 V2000
   -1.1497   -1.1258   -2.7134 Br  0  0  0  0  0  0  0  0  0  0  0  0
    0.2929   -2.4187    1.1528 Cl  0  0  0  0  0  0  0  0  0  0  0  0
    4.5929    0.6293    0.0621 Cl  0  0  0  0  0  0  0  0  0  0  0  0
   -1.9314   -0.2988    1.2651 O   0  0  0  0  0  0  0  0  0  0  0  0
   -2.0057    1.0389   -0.6556 O   0  0  0  0  0  0  0  0  0  0  0  0
   -1.3936   -0.1231   -0.0613 C   0  0  0  0  0  0  0  0  0  0  0  0
    0.1189    0.0368   -0.0159 C   0  0  0  0  0  0  0  0  0  0  0  0
   -2.5846    0.9328    1.5658 C   0  0  0  0  0  0  0  0  0  0  0  0
   -3.0708    1.3967    0.2232 C   0  0  0  0  0  0  0  0  0  0  0  0
   -1.7741   -1.3503   -0.8890 C   0  0  0  0  0  0  0  0  0  0  0  0
    0.9471   -0.9537    0.5162 C   0  0  0  0  0  0  0  0  0  0  0  0
    0.6792    1.2106   -0.5238 C   0  0  0  0  0  0  0  0  0  0  0  0
    2.3299   -0.7708    0.5406 C   0  0  0  0  0  0  0  0  0  0  0  0
    2.0618    1.3934   -0.4995 C   0  0  0  0  0  0  0  0  0  0  0  0
    2.8871    0.4027    0.0327 C   0  0  0  0  0  0  0  0  0  0  0  0
   -1.8427    1.6197    1.9873 H   0  0  0  0  0  0  0  0  0  0  0  0
   -3.3882    0.7788    2.2900 H   0  0  0  0  0  0  0  0  0  0  0  0
   -3.9678    0.8527   -0.0911 H   0  0  0  0  0  0  0  0  0  0  0  0
   -3.2654    2.4710    0.1783 H   0  0  0  0  0  0  0  0  0  0  0  0
   -2.8656   -1.4027   -0.9836 H   0  0  0  0  0  0  0  0  0  0  0  0
   -1.4640   -2.3351   -0.5550 H   0  0  0  0  0  0  0  0  0  0  0  0
    0.0782    2.0095   -0.9472 H   0  0  0  0  0  0  0  0  0  0  0  0
    2.9751   -1.5426    0.9551 H   0  0  0  0  0  0  0  0  0  0  0  0
    2.4827    2.3128   -0.8986 H   0  0  0  0  0  0  0  0  0  0  0  0
  1 10  1  0  0  0  0
  2 11  1  0  0  0  0
  3 15  1  0  0  0  0
  4  6  1  0  0  0  0
  4  8  1  0  0  0  0
  5  6  1  0  0  0  0
  5  9  1  0  0  0  0
  6  7  1  0  0  0  0
  6 10  1  0  0  0  0
  7 11  2  0  0  0  0
  7 12  1  0  0  0  0
  8  9  1  0  0  0  0
  8 16  1  0  0  0  0
  8 17  1  0  0  0  0
  9 18  1  0  0  0  0
  9 19  1  0  0  0  0
 10 20  1  0  0  0  0
 10 21  1  0  0  0  0
 11 13  1  0  0  0  0
 12 14  2  0  0  0  0
 12 22  1  0  0  0  0
 13 15  2  0  0  0  0
 13 23  1  0  0  0  0
 14 15  1  0  0  0  0
 14 24  1  0  0  0  0
M  END
> <PUBCHEM_COMPOUND_CID>
108906

> <PUBCHEM_CONFORMER_RMSD>
0.6

> <PUBCHEM_CONFORMER_DIVERSEORDER>
2
7
8
1
4
6
3
5

> <PUBCHEM_MMFF94_PARTIAL_CHARGES>
18
1 -0.23
10 0.23
11 0.18
12 -0.15
13 -0.15
14 -0.15
15 0.18
2 -0.18
22 0.15
23 0.15
24 0.15
3 -0.18
4 -0.56
5 -0.56
6 0.7
7 -0.14
8 0.28
9 0.28

> <PUBCHEM_EFFECTIVE_ROTOR_COUNT>
3

> <PUBCHEM_PHARMACOPHORE_FEATURES>
5
1 1 hydrophobe
1 4 acceptor
1 5 acceptor
5 4 5 6 8 9 rings
6 7 11 12 13 14 15 rings

> <PUBCHEM_HEAVY_ATOM_COUNT>
15

> <PUBCHEM_ATOM_DEF_STEREO_COUNT>
0

> <PUBCHEM_ATOM_UDEF_STEREO_COUNT>
0

> <PUBCHEM_BOND_DEF_STEREO_COUNT>
0

> <PUBCHEM_BOND_UDEF_STEREO_COUNT>
0

> <PUBCHEM_ISOTOPIC_ATOM_COUNT>
0

> <PUBCHEM_COMPONENT_COUNT>
1

> <PUBCHEM_CACTVS_TAUTO_COUNT>
1

> <PUBCHEM_CONFORMER_ID>
0001A96A00000002

> <PUBCHEM_MMFF94_ENERGY>
43.1843

> <PUBCHEM_FEATURE_SELFOVERLAP>
25.413

> <PUBCHEM_SHAPE_FINGERPRINT>
12138202 97 16774076275853887044
12251169 10 17531259373595818897
12403814 3 16153992460254090262
12423570 1 13657803733148749295
12491281 212 17917717898338456576
12500047 106 17132112433803829892
13024252 1 18113896113051355567
13214271 11 18113902662649810560
13898156 1 17986364794258909295
14289901 80 13551187814688252204
14713566 1 17847054502082077177
14817 1 15978848963685032823
15309172 13 18040719181748002762
15775835 57 18342176652443035361
15852999 172 16343990178004250468
15906896 17 18202566215578723823
16752209 62 17631425970072101431
16945 1 18191309281977733361
17844478 74 16226048894471590996
18534176 82 15913325827163767548
19837323 101 17060352811595893395
200 152 18336258046334278751
20645476 183 17774999072739243847
21061003 4 17458347454949811132
21339142 149 18129373972658736826
21524375 3 18272941496501361921
23236772 104 18342449370176478307
23419403 2 16177323276361571475
23493267 7 15841559578433443926
23557571 272 16628529613980796426
23598291 2 18198329672253391734
2748010 2 17824249415868179974
298252 57 17846786178173992051
430814 3 18271814475491906579
528886 8 18259980466254516032
63268167 104 18410007706825326456
633830 44 18334860537322862100
74978 22 17418087741492538800
77492 1 18272077280055734355
81228 2 17027975690419895442
90525 40 18060136544041034631

> <PUBCHEM_SHAPE_MULTIPOLES>
306.64
5.38
1.91
1.72
4.8
0.62
0.22
-2.4
0.15
-1.14
0.17
-0.73
0.98
-1.12

> <PUBCHEM_SHAPE_SELFOVERLAP>
618.93

> <PUBCHEM_SHAPE_VOLUME>
186.9

> <PUBCHEM_COORDINATE_TYPE>
2
5
10

$$$$
