16046185
  -OEChem-02172602253D

 43 44  0     1  0  0  0  0  0999 V2000
    2.3394    2.1395    0.9912 O   0  0  0  0  0  0  0  0  0  0  0  0
   -0.7149    1.8227    1.2477 O   0  0  0  0  0  0  0  0  0  0  0  0
    0.9007    0.2973    0.3221 C   0  0  1  0  0  0  0  0  0  0  0  0
    1.1216   -0.9857   -0.5017 C   0  0  1  0  0  0  0  0  0  0  0  0
    2.1412    1.1550   -0.0178 C   0  0  2  0  0  0  0  0  0  0  0  0
   -0.4685    0.9731    0.1247 C   0  0  1  0  0  0  0  0  0  0  0  0
    2.6460   -1.2066   -0.4372 C   0  0  0  0  0  0  0  0  0  0  0  0
    3.2633    0.1105    0.0423 C   0  0  0  0  0  0  0  0  0  0  0  0
   -1.6597    0.0039   -0.0595 C   0  0  1  0  0  0  0  0  0  0  0  0
    0.3113   -2.1900   -0.0593 C   0  0  0  0  0  0  0  0  0  0  0  0
   -1.7684   -1.1080    1.0028 C   0  0  0  0  0  0  0  0  0  0  0  0
   -0.5663   -2.0530    1.1606 C   0  0  0  0  0  0  0  0  0  0  0  0
   -2.9858    0.7784   -0.1147 C   0  0  0  0  0  0  0  0  0  0  0  0
    2.1101    1.8611   -1.3753 C   0  0  0  0  0  0  0  0  0  0  0  0
   -2.8985    1.9100   -1.1335 C   0  0  0  0  0  0  0  0  0  0  0  0
   -4.1380   -0.1634   -0.4490 C   0  0  0  0  0  0  0  0  0  0  0  0
    0.3666   -3.3449   -0.7434 C   0  0  0  0  0  0  0  0  0  0  0  0
    0.9914    0.0643    1.3933 H   0  0  0  0  0  0  0  0  0  0  0  0
    0.8513   -0.7755   -1.5466 H   0  0  0  0  0  0  0  0  0  0  0  0
   -0.4090    1.6150   -0.7557 H   0  0  0  0  0  0  0  0  0  0  0  0
    3.0296   -1.4723   -1.4291 H   0  0  0  0  0  0  0  0  0  0  0  0
    2.9258   -2.0170    0.2460 H   0  0  0  0  0  0  0  0  0  0  0  0
    3.6277   -0.0102    1.0706 H   0  0  0  0  0  0  0  0  0  0  0  0
    4.1348    0.3902   -0.5596 H   0  0  0  0  0  0  0  0  0  0  0  0
   -1.5315   -0.4850   -1.0356 H   0  0  0  0  0  0  0  0  0  0  0  0
   -2.6055   -1.7676    0.7497 H   0  0  0  0  0  0  0  0  0  0  0  0
   -2.0113   -0.6799    1.9833 H   0  0  0  0  0  0  0  0  0  0  0  0
   -0.9464   -3.0361    1.4711 H   0  0  0  0  0  0  0  0  0  0  0  0
    0.0481   -1.7301    2.0098 H   0  0  0  0  0  0  0  0  0  0  0  0
   -3.2044    1.2276    0.8629 H   0  0  0  0  0  0  0  0  0  0  0  0
    1.3796    2.6768   -1.3839 H   0  0  0  0  0  0  0  0  0  0  0  0
    3.0783    2.3348   -1.5771 H   0  0  0  0  0  0  0  0  0  0  0  0
    1.8903    1.1805   -2.2024 H   0  0  0  0  0  0  0  0  0  0  0  0
    2.3890    1.6941    1.8538 H   0  0  0  0  0  0  0  0  0  0  0  0
   -0.7695    1.2657    2.0424 H   0  0  0  0  0  0  0  0  0  0  0  0
   -2.5311    1.5549   -2.1025 H   0  0  0  0  0  0  0  0  0  0  0  0
   -3.8875    2.3520   -1.3017 H   0  0  0  0  0  0  0  0  0  0  0  0
   -2.2595    2.7301   -0.7926 H   0  0  0  0  0  0  0  0  0  0  0  0
   -3.9084   -0.7988   -1.3111 H   0  0  0  0  0  0  0  0  0  0  0  0
   -5.0420    0.4062   -0.6944 H   0  0  0  0  0  0  0  0  0  0  0  0
   -4.4097   -0.8011    0.3973 H   0  0  0  0  0  0  0  0  0  0  0  0
    0.9904   -3.4465   -1.6253 H   0  0  0  0  0  0  0  0  0  0  0  0
   -0.2120   -4.2111   -0.4408 H   0  0  0  0  0  0  0  0  0  0  0  0
  1  5  1  0  0  0  0
  1 34  1  0  0  0  0
  2  6  1  0  0  0  0
  2 35  1  0  0  0  0
  3  4  1  0  0  0  0
  3  5  1  0  0  0  0
  3  6  1  0  0  0  0
  3 18  1  0  0  0  0
  4  7  1  0  0  0  0
  4 10  1  0  0  0  0
  4 19  1  0  0  0  0
  5  8  1  0  0  0  0
  5 14  1  0  0  0  0
  6  9  1  0  0  0  0
  6 20  1  0  0  0  0
  7  8  1  0  0  0  0
  7 21  1  0  0  0  0
  7 22  1  0  0  0  0
  8 23  1  0  0  0  0
  8 24  1  0  0  0  0
  9 11  1  0  0  0  0
  9 13  1  0  0  0  0
  9 25  1  0  0  0  0
 10 12  1  0  0  0  0
 10 17  2  0  0  0  0
 11 12  1  0  0  0  0
 11 26  1  0  0  0  0
 11 27  1  0  0  0  0
 12 28  1  0  0  0  0
 12 29  1  0  0  0  0
 13 15  1  0  0  0  0
 13 16  1  0  0  0  0
 13 30  1  0  0  0  0
 14 31  1  0  0  0  0
 14 32  1  0  0  0  0
 14 33  1  0  0  0  0
 15 36  1  0  0  0  0
 15 37  1  0  0  0  0
 15 38  1  0  0  0  0
 16 39  1  0  0  0  0
 16 40  1  0  0  0  0
 16 41  1  0  0  0  0
 17 42  1  0  0  0  0
 17 43  1  0  0  0  0
M  END
> <PUBCHEM_COMPOUND_CID>
16046185

> <PUBCHEM_CONFORMER_RMSD>
0.6

> <PUBCHEM_CONFORMER_DIVERSEORDER>
1
6
5
4
2
7
3

> <PUBCHEM_MMFF94_PARTIAL_CHARGES>
12
1 -0.68
10 -0.28
12 0.14
17 -0.3
2 -0.68
34 0.4
35 0.4
4 0.14
42 0.15
43 0.15
5 0.28
6 0.28

> <PUBCHEM_EFFECTIVE_ROTOR_COUNT>
2.4

> <PUBCHEM_PHARMACOPHORE_FEATURES>
7
1 1 acceptor
1 1 donor
1 2 acceptor
1 2 donor
3 13 15 16 hydrophobe
5 3 4 5 7 8 rings
7 3 4 6 9 10 11 12 rings

> <PUBCHEM_HEAVY_ATOM_COUNT>
17

> <PUBCHEM_ATOM_DEF_STEREO_COUNT>
5

> <PUBCHEM_ATOM_UDEF_STEREO_COUNT>
0

> <PUBCHEM_BOND_DEF_STEREO_COUNT>
0

> <PUBCHEM_BOND_UDEF_STEREO_COUNT>
0

> <PUBCHEM_ISOTOPIC_ATOM_COUNT>
0

> <PUBCHEM_COMPONENT_COUNT>
1

> <PUBCHEM_CACTVS_TAUTO_COUNT>
1

> <PUBCHEM_CONFORMER_ID>
00F4D86900000001

> <PUBCHEM_MMFF94_ENERGY>
62.4442

> <PUBCHEM_FEATURE_SELFOVERLAP>
35.549

> <PUBCHEM_SHAPE_FINGERPRINT>
1 1 18411415081482208254
10967382 1 18411703162218781778
11680986 33 18409454695779935202
12423570 1 14954591643861163339
12553582 1 17043178160787355503
12654215 9 18119519938648901812
13140716 1 18411144657540811523
13380535 76 18335138687277681507
13464514 151 18046626694415085045
13897977 150 18409732846203733507
14614273 12 17838621415538046274
15490181 8 18265072265736940408
15852999 172 18333448742174214499
16945 1 18199190581199141578
18186145 218 18335701594492400517
20201158 50 18338519642593910699
20511035 2 18335704991816825774
20645476 183 17822581623984888714
20645477 70 18267574716317238503
21524375 3 18335699463946008995
2334 1 18267030637653796747
23493267 7 17822862007986957664
23559900 14 18057623143209588084
238 59 17973688482111056965
25 1 18264490585526125685
257057 1 17400352348132448303
2748010 2 18266474254726476482
2871803 45 18336816542633389895
3060560 45 18338227168079322502
3323516 105 18413668015789407423
353137 74 18268710511285580825
5255222 1 17837503212027806554
5262128 65 17769379318670902959
63268167 104 18049165458200026467
69090 78 18339355374510203107
7364860 26 18196929964018122663
7832392 63 17552928325496876033
81228 2 17689432015485812403

> <PUBCHEM_SHAPE_MULTIPOLES>
338.11
5.12
3.01
1.13
2.78
1.47
0.04
-2.02
-1.01
-0.74
-0.35
0.04
-0.19
0.59

> <PUBCHEM_SHAPE_SELFOVERLAP>
690.127

> <PUBCHEM_SHAPE_VOLUME>
197

> <PUBCHEM_COORDINATE_TYPE>
2
5
10

$$$$
