5493604
  -OEChem-02172602583D

 56 59  0     1  0  0  0  0  0999 V2000
    6.2829   -1.0407    0.2406 S   0  0  0  0  0  0  0  0  0  0  0  0
    2.0803    1.6510   -0.6287 O   0  0  0  0  0  0  0  0  0  0  0  0
    4.6722   -0.7807    0.2189 O   0  0  0  0  0  0  0  0  0  0  0  0
    2.1855   -0.6268   -1.1230 O   0  0  0  0  0  0  0  0  0  0  0  0
    6.1043    1.7938    0.1799 O   0  0  0  0  0  0  0  0  0  0  0  0
    4.3782    3.9261    1.0910 O   0  0  0  0  0  0  0  0  0  0  0  0
    0.3309    3.7106   -0.1249 O   0  0  0  0  0  0  0  0  0  0  0  0
    6.4156   -2.5866    0.7441 O   0  0  0  0  0  0  0  0  0  0  0  0
    6.8868   -0.1895    1.2488 O   0  0  0  0  0  0  0  0  0  0  0  0
    6.7484   -0.9869   -1.1328 O   0  0  0  0  0  0  0  0  0  0  0  0
   -2.4719   -0.3885   -0.2236 O   0  0  0  0  0  0  0  0  0  0  0  0
   -0.1267   -4.6250   -0.0091 O   0  0  0  0  0  0  0  0  0  0  0  0
   -2.6951   -4.3959    0.4757 O   0  0  0  0  0  0  0  0  0  0  0  0
   -5.9706    3.0484   -1.3143 O   0  0  0  0  0  0  0  0  0  0  0  0
   -8.0471    2.5243    0.4573 O   0  0  0  0  0  0  0  0  0  0  0  0
    4.7227    1.6159    0.4962 C   0  0  1  0  0  0  0  0  0  0  0  0
    3.9902    2.9159    0.1635 C   0  0  1  0  0  0  0  0  0  0  0  0
    4.1630    0.4435   -0.3096 C   0  0  2  0  0  0  0  0  0  0  0  0
    2.4741    2.7188    0.2351 C   0  0  1  0  0  0  0  0  0  0  0  0
    2.6367    0.3979   -0.2379 C   0  0  1  0  0  0  0  0  0  0  0  0
    1.7206    3.9693   -0.2064 C   0  0  0  0  0  0  0  0  0  0  0  0
    1.0226   -1.2547   -0.7876 C   0  0  0  0  0  0  0  0  0  0  0  0
   -0.1568   -0.5191   -0.6692 C   0  0  0  0  0  0  0  0  0  0  0  0
    1.0145   -2.6322   -0.5628 C   0  0  0  0  0  0  0  0  0  0  0  0
   -1.3451   -1.1641   -0.3255 C   0  0  0  0  0  0  0  0  0  0  0  0
   -1.3511   -2.5399   -0.1011 C   0  0  0  0  0  0  0  0  0  0  0  0
   -0.1725   -3.2800   -0.2185 C   0  0  0  0  0  0  0  0  0  0  0  0
   -2.6175   -3.1941    0.2618 C   0  0  0  0  0  0  0  0  0  0  0  0
   -3.6692   -1.0033    0.1100 C   0  0  0  0  0  0  0  0  0  0  0  0
   -3.8015   -2.3164    0.3562 C   0  0  0  0  0  0  0  0  0  0  0  0
   -4.8155   -0.0765    0.1982 C   0  0  0  0  0  0  0  0  0  0  0  0
   -4.8593    1.0646   -0.6067 C   0  0  0  0  0  0  0  0  0  0  0  0
   -5.8609   -0.3363    1.0878 C   0  0  0  0  0  0  0  0  0  0  0  0
   -5.9419    1.9404   -0.5225 C   0  0  0  0  0  0  0  0  0  0  0  0
   -6.9432    0.5392    1.1722 C   0  0  0  0  0  0  0  0  0  0  0  0
   -6.9838    1.6775    0.3670 C   0  0  0  0  0  0  0  0  0  0  0  0
    4.6683    1.4046    1.5716 H   0  0  0  0  0  0  0  0  0  0  0  0
    4.2882    3.2563   -0.8358 H   0  0  0  0  0  0  0  0  0  0  0  0
    4.4814    0.5171   -1.3578 H   0  0  0  0  0  0  0  0  0  0  0  0
    2.1558    2.4748    1.2578 H   0  0  0  0  0  0  0  0  0  0  0  0
    2.3240    0.1560    0.7889 H   0  0  0  0  0  0  0  0  0  0  0  0
    1.9516    4.2316   -1.2443 H   0  0  0  0  0  0  0  0  0  0  0  0
    1.9493    4.8266    0.4331 H   0  0  0  0  0  0  0  0  0  0  0  0
    6.4274    2.5482    0.7016 H   0  0  0  0  0  0  0  0  0  0  0  0
    4.1111    3.6363    1.9799 H   0  0  0  0  0  0  0  0  0  0  0  0
    0.1372    2.9582   -0.7095 H   0  0  0  0  0  0  0  0  0  0  0  0
   -0.1713    0.5496   -0.8588 H   0  0  0  0  0  0  0  0  0  0  0  0
    1.9375   -3.1998   -0.6556 H   0  0  0  0  0  0  0  0  0  0  0  0
    5.8757   -2.8199    1.5355 H   0  0  0  0  0  0  0  0  0  0  0  0
   -4.7408   -2.7966    0.6046 H   0  0  0  0  0  0  0  0  0  0  0  0
   -1.0055   -4.9637    0.2204 H   0  0  0  0  0  0  0  0  0  0  0  0
   -4.0613    1.2840   -1.3127 H   0  0  0  0  0  0  0  0  0  0  0  0
   -5.8563   -1.1999    1.7476 H   0  0  0  0  0  0  0  0  0  0  0  0
   -7.7463    0.3253    1.8726 H   0  0  0  0  0  0  0  0  0  0  0  0
   -6.7895    3.5386   -1.1248 H   0  0  0  0  0  0  0  0  0  0  0  0
   -8.6686    2.1824    1.1227 H   0  0  0  0  0  0  0  0  0  0  0  0
  1  3  1  0  0  0  0
  1  8  1  0  0  0  0
  1  9  2  0  0  0  0
  1 10  2  0  0  0  0
  2 19  1  0  0  0  0
  2 20  1  0  0  0  0
  3 18  1  0  0  0  0
  4 20  1  0  0  0  0
  4 22  1  0  0  0  0
  5 16  1  0  0  0  0
  5 44  1  0  0  0  0
  6 17  1  0  0  0  0
  6 45  1  0  0  0  0
  7 21  1  0  0  0  0
  7 46  1  0  0  0  0
  8 49  1  0  0  0  0
 11 25  1  0  0  0  0
 11 29  1  0  0  0  0
 12 27  1  0  0  0  0
 12 51  1  0  0  0  0
 13 28  2  0  0  0  0
 14 34  1  0  0  0  0
 14 55  1  0  0  0  0
 15 36  1  0  0  0  0
 15 56  1  0  0  0  0
 16 17  1  0  0  0  0
 16 18  1  0  0  0  0
 16 37  1  0  0  0  0
 17 19  1  0  0  0  0
 17 38  1  0  0  0  0
 18 20  1  0  0  0  0
 18 39  1  0  0  0  0
 19 21  1  0  0  0  0
 19 40  1  0  0  0  0
 20 41  1  0  0  0  0
 21 42  1  0  0  0  0
 21 43  1  0  0  0  0
 22 23  1  0  0  0  0
 22 24  2  0  0  0  0
 23 25  2  0  0  0  0
 23 47  1  0  0  0  0
 24 27  1  0  0  0  0
 24 48  1  0  0  0  0
 25 26  1  0  0  0  0
 26 27  2  0  0  0  0
 26 28  1  0  0  0  0
 28 30  1  0  0  0  0
 29 30  2  0  0  0  0
 29 31  1  0  0  0  0
 30 50  1  0  0  0  0
 31 32  2  0  0  0  0
 31 33  1  0  0  0  0
 32 34  1  0  0  0  0
 32 52  1  0  0  0  0
 33 35  2  0  0  0  0
 33 53  1  0  0  0  0
 34 36  2  0  0  0  0
 35 36  1  0  0  0  0
 35 54  1  0  0  0  0
M  END
> <PUBCHEM_COMPOUND_CID>
5493604

> <PUBCHEM_CONFORMER_RMSD>
1

> <PUBCHEM_CONFORMER_DIVERSEORDER>
1
143
9
228
89
212
283
92
120
290
307
7
51
129
205
303
187
270
112
158
287
64
191
177
41
126
268
116
243
208
155
62
38
234
240
229
266
18
29
68
214
246
34
61
37
202
42
213
190
22
250
123
103
95
32
236
142
161
45
200
63
167
203
294
301
184
277
141
19
231
180
262
99
85
27
25
107
230
74
289
226
286
211
215
279
3
67
15
204
71
104
237
272
251
288
232
50
255
59
146
8
102
248
39
117
291
233
278
253
172
48
93
23
86
81
209
185
11
225
106
55
252
101
162
6
274
28
88
181
137
54
221
149
136
47
263
189
276
2
69
157
258
10
154
147
293
46
111
306
49
292
119
78
108
218
199
173
201
273
76
4
121
302
140
35
163
153
125
247
305
309
194
165
110
271
242
5
135
130
282
40
264
122
148
310
224
100
259
105
239
75
58
70
139
77
216
238
295
52
217
145
127
210
72
151
91
195
17
183
297
33
65
182
298
197
124
304
207
178
73
131
159
44
206
170
150
198
109
256
53
83
280
30
192
66
188
164
134
196
296
175
152
87
174
193
160
60
16
285
56
260
223
79
113
90
156
82
115
166
80
114
26
132
227
257
254
96
168
118
308
12
261
133
300
128
220
13
179
43
299
219
138
171
36
98
176
284
235
222
144
269
84
241
249
24
31
14
94
21
57
245
169
20
267
281
186
244
275
97
265

> <PUBCHEM_MMFF94_PARTIAL_CHARGES>
49
1 1.67
10 -0.65
11 -0.16
12 -0.53
13 -0.57
14 -0.53
15 -0.53
16 0.28
17 0.28
18 0.28
19 0.28
2 -0.56
20 0.56
21 0.28
22 0.08
23 -0.15
24 -0.15
25 0.08
26 0.09
27 0.08
28 0.47
29 0.05
3 -0.46
30 -0.14
31 0.03
32 -0.15
33 -0.15
34 0.08
35 -0.15
36 0.08
4 -0.36
44 0.4
45 0.4
46 0.4
47 0.15
48 0.15
49 0.5
5 -0.68
50 0.15
51 0.45
52 0.15
53 0.15
54 0.15
55 0.45
56 0.45
6 -0.68
7 -0.68
8 -0.68
9 -0.65

> <PUBCHEM_EFFECTIVE_ROTOR_COUNT>
7.2

> <PUBCHEM_PHARMACOPHORE_FEATURES>
21
1 10 acceptor
1 11 acceptor
1 12 donor
1 13 acceptor
1 14 donor
1 15 donor
1 2 acceptor
1 4 acceptor
1 5 acceptor
1 5 donor
1 6 acceptor
1 6 donor
1 7 acceptor
1 7 donor
1 8 acceptor
1 9 acceptor
4 1 8 9 10 anion
6 11 25 26 28 29 30 rings
6 2 16 17 18 19 20 rings
6 22 23 24 25 26 27 rings
6 31 32 33 34 35 36 rings

> <PUBCHEM_HEAVY_ATOM_COUNT>
36

> <PUBCHEM_ATOM_DEF_STEREO_COUNT>
5

> <PUBCHEM_ATOM_UDEF_STEREO_COUNT>
0

> <PUBCHEM_BOND_DEF_STEREO_COUNT>
0

> <PUBCHEM_BOND_UDEF_STEREO_COUNT>
0

> <PUBCHEM_ISOTOPIC_ATOM_COUNT>
0

> <PUBCHEM_COMPONENT_COUNT>
1

> <PUBCHEM_CACTVS_TAUTO_COUNT>
57

> <PUBCHEM_CONFORMER_ID>
0053D36400000001

> <PUBCHEM_MMFF94_ENERGY>
113.344

> <PUBCHEM_FEATURE_SELFOVERLAP>
106.765

> <PUBCHEM_SHAPE_FINGERPRINT>
10319926 262 18261114118382519419
11399510 152 17974854174589561226
12107183 9 18409443704905747538
12422481 6 17821729446839287301
12925494 130 18411134783527074827
13402501 40 18409167697412251333
13560911 23 18192417779189439274
14020679 6 17749111140151274931
14117953 113 18341054021011631973
14223995 32 18336824204322627109
15320467 1 18410857625383347677
16087824 20 18411140195513369892
16112460 7 18271815617811380504
16758388 162 18261667095463616610
19301679 30 17903082474887069843
19302320 297 18409739443632566833
20715895 44 18342178864641213329
21033648 29 17845919832385240938
21223535 225 17486517930843733329
21859007 373 18188487973959324021
22889206 1 17751634360846036379
23522609 53 17533225399999043516
23559900 14 18201168701898209094
24204213 92 17342391683158935454
24893992 56 18412547605299175131
25223398 141 17750227020074061300
2838139 119 18412541016339581159
3117164 225 18337670927234192674
3178227 256 18336551525185490512
3534868 343 17182501131617585639
376196 1 18343023323921229279
397638 26 18410006628682936473
4073 2 18044377351908450738
4144715 1 18191593158057921298
5104073 3 18263358269297268210
6371009 1 18201160966303127257
6371380 46 18409446981807499710

> <PUBCHEM_SHAPE_MULTIPOLES>
662.54
19.58
5.54
0.95
5.94
0.35
0.02
-10.79
4.3
-0.09
0.23
0.1
-0.14
1.14

> <PUBCHEM_SHAPE_SELFOVERLAP>
1437.785

> <PUBCHEM_SHAPE_VOLUME>
361.8

> <PUBCHEM_COORDINATE_TYPE>
2
5
10

$$$$
