5318537
  -OEChem-02172602463D

 61 66  0     0  0  0  0  0  0999 V2000
    4.7599    0.4267    0.4679 O   0  0  0  0  0  0  0  0  0  0  0  0
    0.3680   -2.8915    0.9322 O   0  0  0  0  0  0  0  0  0  0  0  0
   -4.8541    0.6159    0.3401 O   0  0  0  0  0  0  0  0  0  0  0  0
    0.5775   -0.5938    2.4546 O   0  0  0  0  0  0  0  0  0  0  0  0
    2.3398   -3.5606   -0.8320 O   0  0  0  0  0  0  0  0  0  0  0  0
    4.6453   -2.9088   -1.8687 O   0  0  0  0  0  0  0  0  0  0  0  0
   -9.3104    0.8677   -1.5505 O   0  0  0  0  0  0  0  0  0  0  0  0
   -7.7410   -1.2092   -1.8808 O   0  0  0  0  0  0  0  0  0  0  0  0
   -7.5641    4.4530    1.0287 O   0  0  0  0  0  0  0  0  0  0  0  0
    9.9702    3.8885   -0.4501 O   0  0  0  0  0  0  0  0  0  0  0  0
    3.5875   -1.5861   -0.2208 C   0  0  0  0  0  0  0  0  0  0  0  0
    3.6899   -0.4281    0.5483 C   0  0  0  0  0  0  0  0  0  0  0  0
    1.4612   -2.0859    0.8028 C   0  0  0  0  0  0  0  0  0  0  0  0
    2.4736   -2.4199   -0.0975 C   0  0  0  0  0  0  0  0  0  0  0  0
    1.5618   -0.9267    1.5734 C   0  0  0  0  0  0  0  0  0  0  0  0
    2.6759   -0.0963    1.4472 C   0  0  0  0  0  0  0  0  0  0  0  0
    5.7868    0.1186   -0.4114 C   0  0  0  0  0  0  0  0  0  0  0  0
    4.6705   -1.9111   -1.1614 C   0  0  0  0  0  0  0  0  0  0  0  0
   -3.3470   -1.2381    0.0990 C   0  0  0  0  0  0  0  0  0  0  0  0
   -4.6684   -0.6488   -0.1969 C   0  0  0  0  0  0  0  0  0  0  0  0
    5.8007   -0.9617   -1.2084 C   0  0  0  0  0  0  0  0  0  0  0  0
   -7.0791    0.6846   -0.6319 C   0  0  0  0  0  0  0  0  0  0  0  0
   -6.0493    1.2515    0.1170 C   0  0  0  0  0  0  0  0  0  0  0  0
   -0.8702   -2.3407    0.6542 C   0  0  0  0  0  0  0  0  0  0  0  0
    6.8842    1.1067   -0.4221 C   0  0  0  0  0  0  0  0  0  0  0  0
   -5.5803   -1.2960   -0.9397 C   0  0  0  0  0  0  0  0  0  0  0  0
   -2.2719   -1.0062   -0.7592 C   0  0  0  0  0  0  0  0  0  0  0  0
   -3.1734   -2.0254    1.2372 C   0  0  0  0  0  0  0  0  0  0  0  0
   -6.8817   -0.6530   -1.2111 C   0  0  0  0  0  0  0  0  0  0  0  0
   -1.0235   -1.5621   -0.4794 C   0  0  0  0  0  0  0  0  0  0  0  0
   -1.9250   -2.5811    1.5171 C   0  0  0  0  0  0  0  0  0  0  0  0
   -8.2754    1.3785   -0.8272 C   0  0  0  0  0  0  0  0  0  0  0  0
   -6.2105    2.5193    0.6763 C   0  0  0  0  0  0  0  0  0  0  0  0
    6.8330    2.2028   -1.2867 C   0  0  0  0  0  0  0  0  0  0  0  0
    7.9777    0.9502    0.4330 C   0  0  0  0  0  0  0  0  0  0  0  0
   -7.4040    3.2158    0.4838 C   0  0  0  0  0  0  0  0  0  0  0  0
   -8.4341    2.6464   -0.2663 C   0  0  0  0  0  0  0  0  0  0  0  0
    7.8691    3.1367   -1.2963 C   0  0  0  0  0  0  0  0  0  0  0  0
    9.0138    1.8841    0.4235 C   0  0  0  0  0  0  0  0  0  0  0  0
    8.9595    2.9773   -0.4412 C   0  0  0  0  0  0  0  0  0  0  0  0
    0.7570    0.6066    3.2035 C   0  0  0  0  0  0  0  0  0  0  0  0
    2.8132    0.8170    2.0163 H   0  0  0  0  0  0  0  0  0  0  0  0
    6.6141   -1.1742   -1.8932 H   0  0  0  0  0  0  0  0  0  0  0  0
   -5.4051   -2.2825   -1.3544 H   0  0  0  0  0  0  0  0  0  0  0  0
   -2.3927   -0.3969   -1.6516 H   0  0  0  0  0  0  0  0  0  0  0  0
   -4.0013   -2.2138    1.9164 H   0  0  0  0  0  0  0  0  0  0  0  0
   -0.2081   -1.3816   -1.1732 H   0  0  0  0  0  0  0  0  0  0  0  0
   -1.7910   -3.1929    2.4041 H   0  0  0  0  0  0  0  0  0  0  0  0
   -5.4096    2.9651    1.2609 H   0  0  0  0  0  0  0  0  0  0  0  0
    5.9891    2.3414   -1.9585 H   0  0  0  0  0  0  0  0  0  0  0  0
    8.0341    0.1038    1.1136 H   0  0  0  0  0  0  0  0  0  0  0  0
   -9.3649    3.1883   -0.4170 H   0  0  0  0  0  0  0  0  0  0  0  0
    3.1016   -3.6832   -1.4184 H   0  0  0  0  0  0  0  0  0  0  0  0
    7.8147    3.9842   -1.9744 H   0  0  0  0  0  0  0  0  0  0  0  0
    9.8605    1.7549    1.0922 H   0  0  0  0  0  0  0  0  0  0  0  0
    0.7813    1.4881    2.5537 H   0  0  0  0  0  0  0  0  0  0  0  0
    1.6318    0.5464    3.8599 H   0  0  0  0  0  0  0  0  0  0  0  0
   -0.1189    0.7149    3.8516 H   0  0  0  0  0  0  0  0  0  0  0  0
   -9.0878   -0.0137   -1.8873 H   0  0  0  0  0  0  0  0  0  0  0  0
   -8.4472    4.7881    0.7965 H   0  0  0  0  0  0  0  0  0  0  0  0
    9.7684    4.5767   -1.1073 H   0  0  0  0  0  0  0  0  0  0  0  0
  1 12  1  0  0  0  0
  1 17  1  0  0  0  0
  2 13  1  0  0  0  0
  2 24  1  0  0  0  0
  3 20  1  0  0  0  0
  3 23  1  0  0  0  0
  4 15  1  0  0  0  0
  4 41  1  0  0  0  0
  5 14  1  0  0  0  0
  5 53  1  0  0  0  0
  6 18  2  0  0  0  0
  7 32  1  0  0  0  0
  7 59  1  0  0  0  0
  8 29  2  0  0  0  0
  9 36  1  0  0  0  0
  9 60  1  0  0  0  0
 10 40  1  0  0  0  0
 10 61  1  0  0  0  0
 11 12  1  0  0  0  0
 11 14  2  0  0  0  0
 11 18  1  0  0  0  0
 12 16  2  0  0  0  0
 13 14  1  0  0  0  0
 13 15  2  0  0  0  0
 15 16  1  0  0  0  0
 16 42  1  0  0  0  0
 17 21  2  0  0  0  0
 17 25  1  0  0  0  0
 18 21  1  0  0  0  0
 19 20  1  0  0  0  0
 19 27  2  0  0  0  0
 19 28  1  0  0  0  0
 20 26  2  0  0  0  0
 21 43  1  0  0  0  0
 22 23  1  0  0  0  0
 22 29  1  0  0  0  0
 22 32  2  0  0  0  0
 23 33  2  0  0  0  0
 24 30  2  0  0  0  0
 24 31  1  0  0  0  0
 25 34  2  0  0  0  0
 25 35  1  0  0  0  0
 26 29  1  0  0  0  0
 26 44  1  0  0  0  0
 27 30  1  0  0  0  0
 27 45  1  0  0  0  0
 28 31  2  0  0  0  0
 28 46  1  0  0  0  0
 30 47  1  0  0  0  0
 31 48  1  0  0  0  0
 32 37  1  0  0  0  0
 33 36  1  0  0  0  0
 33 49  1  0  0  0  0
 34 38  1  0  0  0  0
 34 50  1  0  0  0  0
 35 39  2  0  0  0  0
 35 51  1  0  0  0  0
 36 37  2  0  0  0  0
 37 52  1  0  0  0  0
 38 40  2  0  0  0  0
 38 54  1  0  0  0  0
 39 40  1  0  0  0  0
 39 55  1  0  0  0  0
 41 56  1  0  0  0  0
 41 57  1  0  0  0  0
 41 58  1  0  0  0  0
M  END
> <PUBCHEM_COMPOUND_CID>
5318537

> <PUBCHEM_CONFORMER_RMSD>
1

> <PUBCHEM_CONFORMER_DIVERSEORDER>
19
17
3
14
21
16
15
12
5
6
13
11
20
7
18
8
1
9
2
10
4

> <PUBCHEM_MMFF94_PARTIAL_CHARGES>
58
1 -0.16
10 -0.53
11 0.09
12 0.08
13 0.08
14 0.08
15 0.08
16 -0.15
17 0.05
18 0.47
19 0.03
2 -0.17
20 0.05
21 -0.14
22 0.09
23 0.08
24 0.08
25 0.03
26 -0.14
27 -0.15
28 -0.15
29 0.47
3 -0.16
30 -0.15
31 -0.15
32 0.08
33 -0.15
34 -0.15
35 -0.15
36 0.08
37 -0.15
38 -0.15
39 -0.15
4 -0.36
40 0.08
41 0.28
42 0.15
43 0.15
44 0.15
45 0.15
46 0.15
47 0.15
48 0.15
49 0.15
5 -0.53
50 0.15
51 0.15
52 0.15
53 0.45
54 0.15
55 0.15
59 0.45
6 -0.57
60 0.45
61 0.45
7 -0.53
8 -0.57
9 -0.53

> <PUBCHEM_EFFECTIVE_ROTOR_COUNT>
5

> <PUBCHEM_PHARMACOPHORE_FEATURES>
16
1 1 acceptor
1 10 donor
1 2 acceptor
1 3 acceptor
1 4 acceptor
1 5 donor
1 6 acceptor
1 7 donor
1 8 acceptor
1 9 donor
6 1 11 12 17 18 21 rings
6 11 12 13 14 15 16 rings
6 19 24 27 28 30 31 rings
6 22 23 32 33 36 37 rings
6 25 34 35 38 39 40 rings
6 3 20 22 23 26 29 rings

> <PUBCHEM_HEAVY_ATOM_COUNT>
41

> <PUBCHEM_ATOM_DEF_STEREO_COUNT>
0

> <PUBCHEM_ATOM_UDEF_STEREO_COUNT>
0

> <PUBCHEM_BOND_DEF_STEREO_COUNT>
0

> <PUBCHEM_BOND_UDEF_STEREO_COUNT>
0

> <PUBCHEM_ISOTOPIC_ATOM_COUNT>
0

> <PUBCHEM_COMPONENT_COUNT>
1

> <PUBCHEM_CACTVS_TAUTO_COUNT>
252

> <PUBCHEM_CONFORMER_ID>
0051278900000013

> <PUBCHEM_MMFF94_ENERGY>
152.5966

> <PUBCHEM_FEATURE_SELFOVERLAP>
81.265

> <PUBCHEM_SHAPE_FINGERPRINT>
10029044 110 18260266369501388116
10190206 1 17632585945737852320
10280341 67 18339071696848857264
10533779 1 18259977197531911156
10533779 47 14635139085183345304
10677394 325 18343591745736891096
10838868 160 18410283714087512901
10930396 42 15646768995277781141
11181472 205 18261109674172361114
11421887 103 18335129930141117820
11578821 258 18118126012390485020
11607047 141 17604418584713779538
11607047 74 12175034689272422122
11991303 11 16271343281058755935
12013929 29 18197499511437345717
12124843 1 17917714582423471663
13165053 182 18269853019594373593
13248334 5 18192147097476826626
13782708 43 10015578389846922899
14904525 67 17969497101074321677
14931854 50 17703798020066836890
15183329 4 17346596323445689723
15198563 99 15482401880010468472
15347591 1 18408887347469714946
15538507 75 17458890615034168512
15685185 35 18334013913359080737
16728433 281 17916590830681402377
16994733 274 18260268577219469360
19304671 126 18337962199258366750
20721686 146 18336550542935738516
21792965 326 18273502272948494681
23516275 100 18334575707102143805
23576562 1 16701161144741224589
24771293 8 18187081775912419879
3178227 256 12107778619683909810
3711267 37 18260555536374168317
3918712 181 18188203213491127413
393628 194 18334579091583183061
397638 26 14851605492272096352
397830 11 12324252637734673931
3986486 107 17988085486842987237
4073 2 18335422349116088611
44802255 64 17703793656401436911
4516262 110 18188762856920948775
5372103 7 18410576223657568308
54039377 194 11455894680248497681
5718773 13 10231755578359119522
5776283 40 18341891917702679505
5937810 71 18342462530505146489
6201320 82 18263662787138044828
6289498 60 17313099774271857460
636775 72 18408041835832910629
6673363 416 18270118045778996333
6691757 9 15430314801551727458
6698420 124 18114185211295064474
9980921 177 17822839919866830354
9980921 221 16916793925328725009

> <PUBCHEM_SHAPE_MULTIPOLES>
785.07
33
4.46
1.78
1.22
2.62
0.85
42.05
-12.52
1.41
-0.12
-0.13
-0.36
-1.48

> <PUBCHEM_SHAPE_SELFOVERLAP>
1780.712

> <PUBCHEM_SHAPE_VOLUME>
406.5

> <PUBCHEM_COORDINATE_TYPE>
2
5
10

$$$$
