5315202
  -OEChem-02172602243D

 33 35  0     0  0  0  0  0  0999 V2000
    0.1940    0.8886   -0.0487 O   0  0  0  0  0  0  0  0  0  0  0  0
   -4.0013   -1.5091    0.3330 O   0  0  0  0  0  0  0  0  0  0  0  0
   -1.6674   -2.7045    0.4241 O   0  0  0  0  0  0  0  0  0  0  0  0
   -3.9458    3.2048   -0.2423 O   0  0  0  0  0  0  0  0  0  0  0  0
    6.4967    0.3939   -0.1440 O   0  0  0  0  0  0  0  0  0  0  0  0
   -1.8760   -0.3668    0.1490 C   0  0  0  0  0  0  0  0  0  0  0  0
   -1.1760    0.8278   -0.0113 C   0  0  0  0  0  0  0  0  0  0  0  0
    0.9114   -0.2903    0.0867 C   0  0  0  0  0  0  0  0  0  0  0  0
   -3.2723   -0.3689    0.1790 C   0  0  0  0  0  0  0  0  0  0  0  0
   -1.1185   -1.6204    0.2838 C   0  0  0  0  0  0  0  0  0  0  0  0
    2.3760   -0.1116    0.0263 C   0  0  0  0  0  0  0  0  0  0  0  0
    0.3530   -1.5015    0.2397 C   0  0  0  0  0  0  0  0  0  0  0  0
   -1.8705    2.0305   -0.1432 C   0  0  0  0  0  0  0  0  0  0  0  0
   -3.9645    0.8356    0.0473 C   0  0  0  0  0  0  0  0  0  0  0  0
   -3.2653    2.0327   -0.1135 C   0  0  0  0  0  0  0  0  0  0  0  0
    3.1870   -1.1259   -0.4885 C   0  0  0  0  0  0  0  0  0  0  0  0
    2.9570    1.0738    0.4837 C   0  0  0  0  0  0  0  0  0  0  0  0
    4.5703   -0.9562   -0.5454 C   0  0  0  0  0  0  0  0  0  0  0  0
    4.3404    1.2437    0.4269 C   0  0  0  0  0  0  0  0  0  0  0  0
    5.1471    0.2287   -0.0879 C   0  0  0  0  0  0  0  0  0  0  0  0
   -4.3752   -2.2050   -0.8547 C   0  0  0  0  0  0  0  0  0  0  0  0
    0.9161   -2.4199    0.3576 H   0  0  0  0  0  0  0  0  0  0  0  0
   -1.3283    2.9642   -0.2688 H   0  0  0  0  0  0  0  0  0  0  0  0
   -5.0518    0.8370    0.0713 H   0  0  0  0  0  0  0  0  0  0  0  0
    2.7749   -2.0542   -0.8750 H   0  0  0  0  0  0  0  0  0  0  0  0
    2.3532    1.8780    0.8974 H   0  0  0  0  0  0  0  0  0  0  0  0
    5.1877   -1.7523   -0.9529 H   0  0  0  0  0  0  0  0  0  0  0  0
    4.7842    2.1680    0.7865 H   0  0  0  0  0  0  0  0  0  0  0  0
   -4.7548   -3.1900   -0.5698 H   0  0  0  0  0  0  0  0  0  0  0  0
   -3.5226   -2.3384   -1.5283 H   0  0  0  0  0  0  0  0  0  0  0  0
   -5.1715   -1.6590   -1.3701 H   0  0  0  0  0  0  0  0  0  0  0  0
   -4.9001    3.0220   -0.1998 H   0  0  0  0  0  0  0  0  0  0  0  0
    6.8965   -0.4058   -0.5271 H   0  0  0  0  0  0  0  0  0  0  0  0
  1  7  1  0  0  0  0
  1  8  1  0  0  0  0
  2  9  1  0  0  0  0
  2 21  1  0  0  0  0
  3 10  2  0  0  0  0
  4 15  1  0  0  0  0
  4 32  1  0  0  0  0
  5 20  1  0  0  0  0
  5 33  1  0  0  0  0
  6  7  2  0  0  0  0
  6  9  1  0  0  0  0
  6 10  1  0  0  0  0
  7 13  1  0  0  0  0
  8 11  1  0  0  0  0
  8 12  2  0  0  0  0
  9 14  2  0  0  0  0
 10 12  1  0  0  0  0
 11 16  2  0  0  0  0
 11 17  1  0  0  0  0
 12 22  1  0  0  0  0
 13 15  2  0  0  0  0
 13 23  1  0  0  0  0
 14 15  1  0  0  0  0
 14 24  1  0  0  0  0
 16 18  1  0  0  0  0
 16 25  1  0  0  0  0
 17 19  2  0  0  0  0
 17 26  1  0  0  0  0
 18 20  2  0  0  0  0
 18 27  1  0  0  0  0
 19 20  1  0  0  0  0
 19 28  1  0  0  0  0
 21 29  1  0  0  0  0
 21 30  1  0  0  0  0
 21 31  1  0  0  0  0
M  END
> <PUBCHEM_COMPOUND_CID>
5315202

> <PUBCHEM_CONFORMER_RMSD>
0.6

> <PUBCHEM_CONFORMER_DIVERSEORDER>
1
2
3

> <PUBCHEM_MMFF94_PARTIAL_CHARGES>
30
1 -0.16
10 0.47
11 0.03
12 -0.14
13 -0.15
14 -0.15
15 0.08
16 -0.15
17 -0.15
18 -0.15
19 -0.15
2 -0.36
20 0.08
21 0.28
22 0.15
23 0.15
24 0.15
25 0.15
26 0.15
27 0.15
28 0.15
3 -0.57
32 0.45
33 0.45
4 -0.53
5 -0.53
6 0.09
7 0.08
8 0.05
9 0.08

> <PUBCHEM_EFFECTIVE_ROTOR_COUNT>
2

> <PUBCHEM_PHARMACOPHORE_FEATURES>
8
1 1 acceptor
1 2 acceptor
1 3 acceptor
1 4 donor
1 5 donor
6 1 6 7 8 10 12 rings
6 11 16 17 18 19 20 rings
6 6 7 9 13 14 15 rings

> <PUBCHEM_HEAVY_ATOM_COUNT>
21

> <PUBCHEM_ATOM_DEF_STEREO_COUNT>
0

> <PUBCHEM_ATOM_UDEF_STEREO_COUNT>
0

> <PUBCHEM_BOND_DEF_STEREO_COUNT>
0

> <PUBCHEM_BOND_UDEF_STEREO_COUNT>
0

> <PUBCHEM_ISOTOPIC_ATOM_COUNT>
0

> <PUBCHEM_COMPONENT_COUNT>
1

> <PUBCHEM_CACTVS_TAUTO_COUNT>
10

> <PUBCHEM_CONFORMER_ID>
00511A8200000001

> <PUBCHEM_MMFF94_ENERGY>
74.4103

> <PUBCHEM_FEATURE_SELFOVERLAP>
40.635

> <PUBCHEM_SHAPE_FINGERPRINT>
10319926 262 18339062849368474874
10411042 1 17904766927154210819
10493431 412 18267030458046223561
10498660 4 18335133150959491333
10608611 8 18413106182401122944
10646746 165 18410012113619968996
11315181 36 17749391507532636200
12107183 9 17901658272858701490
12173636 292 18336825299596959205
12236239 1 17458343057382983898
12390115 104 18269851825893657649
12403259 226 18270675488862080033
12403259 415 18130783482178102688
13073987 5 18334293150330958242
13140716 1 17974017442198991739
14508225 48 18266446780617243565
14790565 3 17764877887939232953
15042514 8 18191874633288040843
15196674 1 18410575050778256610
16087824 20 18410571749130353541
17844677 252 18411707612227166464
18927931 339 18338242655969093223
200 152 17418095433931953202
20510252 161 18413953888543734145
20645477 56 18408888416820534552
20645477 70 17346329155078804526
21033648 29 18271798021461919456
21065198 57 18340487777187468420
21236236 1 18412262839327787887
21267235 1 18337116777489549203
21279426 13 18268434525561917654
22122407 14 15213022639375683679
221357 26 18272086127667174225
23402539 116 18410851087946627687
23402655 69 18201436931242738116
23557571 272 18343027709266662188
23559900 14 18127971910940093262
25147074 1 18115853123574472771
283562 15 18409727370590241563
335352 9 18193839232801279886
350125 39 18410298021187980809
3545911 37 18341615902050881216
4214541 1 18411419501378004584
474 4 16806740671194329340
495365 180 17489009510449867642
5104073 3 18410292476289873658
559249 180 18337105662631210378
6327066 14 18043805386703286957
69090 78 18343301487461875510
77779 3 18411983542332175380
9709674 26 18413114961203870014

> <PUBCHEM_SHAPE_MULTIPOLES>
402.82
11.44
2.62
0.71
11.77
0.4
-0.03
1.31
-1.19
-3.81
-0.14
-0.02
-0.11
0.38

> <PUBCHEM_SHAPE_SELFOVERLAP>
895.112

> <PUBCHEM_SHAPE_VOLUME>
214.7

> <PUBCHEM_COORDINATE_TYPE>
2
5
10

$$$$
