442662
  -OEChem-02172602323D

 42 44  0     0  0  0  0  0  0999 V2000
    0.0841    0.1414   -0.0741 O   0  0  0  0  0  0  0  0  0  0  0  0
   -1.4042    2.4025   -0.1956 O   0  0  0  0  0  0  0  0  0  0  0  0
   -4.1545    2.2851   -0.0847 O   0  0  0  0  0  0  0  0  0  0  0  0
   -3.9861   -2.4581    0.2751 O   0  0  0  0  0  0  0  0  0  0  0  0
   -5.4281   -0.1457    0.1471 O   0  0  0  0  0  0  0  0  0  0  0  0
   -1.6132   -3.5462    0.2715 O   0  0  0  0  0  0  0  0  0  0  0  0
    4.7330    1.8159    0.8335 O   0  0  0  0  0  0  0  0  0  0  0  0
    6.4023   -0.0902   -0.3093 O   0  0  0  0  0  0  0  0  0  0  0  0
   -1.9265   -1.2099    0.1045 C   0  0  0  0  0  0  0  0  0  0  0  0
   -1.2811    0.0198   -0.0146 C   0  0  0  0  0  0  0  0  0  0  0  0
    0.8533   -1.0101   -0.0040 C   0  0  0  0  0  0  0  0  0  0  0  0
   -2.0286    1.1960   -0.0794 C   0  0  0  0  0  0  0  0  0  0  0  0
   -3.3207   -1.2737    0.1599 C   0  0  0  0  0  0  0  0  0  0  0  0
   -1.1138   -2.4342    0.1695 C   0  0  0  0  0  0  0  0  0  0  0  0
   -3.4214    1.1365   -0.0242 C   0  0  0  0  0  0  0  0  0  0  0  0
    2.3076   -0.7659   -0.0824 C   0  0  0  0  0  0  0  0  0  0  0  0
    0.3499   -2.2500    0.1048 C   0  0  0  0  0  0  0  0  0  0  0  0
   -4.0658   -0.0956    0.0952 C   0  0  0  0  0  0  0  0  0  0  0  0
    2.8479    0.4220    0.4167 C   0  0  0  0  0  0  0  0  0  0  0  0
    3.1499   -1.7214   -0.6564 C   0  0  0  0  0  0  0  0  0  0  0  0
    4.2215    0.6528    0.3425 C   0  0  0  0  0  0  0  0  0  0  0  0
    4.5234   -1.4907   -0.7308 C   0  0  0  0  0  0  0  0  0  0  0  0
    5.0592   -0.3036   -0.2313 C   0  0  0  0  0  0  0  0  0  0  0  0
   -1.0628    3.0734    1.0151 C   0  0  0  0  0  0  0  0  0  0  0  0
   -4.5481    2.7334   -1.3794 C   0  0  0  0  0  0  0  0  0  0  0  0
    4.8229    2.9165   -0.0692 C   0  0  0  0  0  0  0  0  0  0  0  0
    0.9537   -3.1474    0.1719 H   0  0  0  0  0  0  0  0  0  0  0  0
    2.2128    1.1767    0.8758 H   0  0  0  0  0  0  0  0  0  0  0  0
    2.7692   -2.6486   -1.0765 H   0  0  0  0  0  0  0  0  0  0  0  0
    5.1645   -2.2418   -1.1845 H   0  0  0  0  0  0  0  0  0  0  0  0
   -3.3637   -3.1999    0.3123 H   0  0  0  0  0  0  0  0  0  0  0  0
   -5.6981   -1.0769    0.2283 H   0  0  0  0  0  0  0  0  0  0  0  0
   -0.3711    2.4685    1.6099 H   0  0  0  0  0  0  0  0  0  0  0  0
   -1.9616    3.2979    1.5981 H   0  0  0  0  0  0  0  0  0  0  0  0
   -0.5698    4.0148    0.7574 H   0  0  0  0  0  0  0  0  0  0  0  0
   -3.6700    2.9473   -1.9969 H   0  0  0  0  0  0  0  0  0  0  0  0
   -5.1248    3.6549   -1.2620 H   0  0  0  0  0  0  0  0  0  0  0  0
   -5.1794    1.9865   -1.8711 H   0  0  0  0  0  0  0  0  0  0  0  0
    6.8207   -0.8575   -0.7362 H   0  0  0  0  0  0  0  0  0  0  0  0
    3.8281    3.2006   -0.4269 H   0  0  0  0  0  0  0  0  0  0  0  0
    5.4705    2.6691   -0.9161 H   0  0  0  0  0  0  0  0  0  0  0  0
    5.2571    3.7648    0.4670 H   0  0  0  0  0  0  0  0  0  0  0  0
  1 10  1  0  0  0  0
  1 11  1  0  0  0  0
  2 12  1  0  0  0  0
  2 24  1  0  0  0  0
  3 15  1  0  0  0  0
  3 25  1  0  0  0  0
  4 13  1  0  0  0  0
  4 31  1  0  0  0  0
  5 18  1  0  0  0  0
  5 32  1  0  0  0  0
  6 14  2  0  0  0  0
  7 21  1  0  0  0  0
  7 26  1  0  0  0  0
  8 23  1  0  0  0  0
  8 39  1  0  0  0  0
  9 10  1  0  0  0  0
  9 13  2  0  0  0  0
  9 14  1  0  0  0  0
 10 12  2  0  0  0  0
 11 16  1  0  0  0  0
 11 17  2  0  0  0  0
 12 15  1  0  0  0  0
 13 18  1  0  0  0  0
 14 17  1  0  0  0  0
 15 18  2  0  0  0  0
 16 19  2  0  0  0  0
 16 20  1  0  0  0  0
 17 27  1  0  0  0  0
 19 21  1  0  0  0  0
 19 28  1  0  0  0  0
 20 22  2  0  0  0  0
 20 29  1  0  0  0  0
 21 23  2  0  0  0  0
 22 23  1  0  0  0  0
 22 30  1  0  0  0  0
 24 33  1  0  0  0  0
 24 34  1  0  0  0  0
 24 35  1  0  0  0  0
 25 36  1  0  0  0  0
 25 37  1  0  0  0  0
 25 38  1  0  0  0  0
 26 40  1  0  0  0  0
 26 41  1  0  0  0  0
 26 42  1  0  0  0  0
M  END
> <PUBCHEM_COMPOUND_CID>
442662

> <PUBCHEM_CONFORMER_RMSD>
0.8

> <PUBCHEM_CONFORMER_DIVERSEORDER>
1
2
6
5
4
3
7

> <PUBCHEM_MMFF94_PARTIAL_CHARGES>
33
1 -0.16
10 0.08
11 0.05
12 0.08
13 0.08
14 0.47
15 0.08
16 0.03
17 -0.14
18 0.08
19 -0.15
2 -0.36
20 -0.15
21 0.08
22 -0.15
23 0.08
24 0.28
25 0.28
26 0.28
27 0.15
28 0.15
29 0.15
3 -0.36
30 0.15
31 0.45
32 0.45
39 0.45
4 -0.53
5 -0.53
6 -0.57
7 -0.36
8 -0.53
9 0.09

> <PUBCHEM_EFFECTIVE_ROTOR_COUNT>
4

> <PUBCHEM_PHARMACOPHORE_FEATURES>
11
1 1 acceptor
1 2 acceptor
1 3 acceptor
1 4 donor
1 5 donor
1 6 acceptor
1 7 acceptor
1 8 donor
6 1 9 10 11 14 17 rings
6 16 19 20 21 22 23 rings
6 9 10 12 13 15 18 rings

> <PUBCHEM_HEAVY_ATOM_COUNT>
26

> <PUBCHEM_ATOM_DEF_STEREO_COUNT>
0

> <PUBCHEM_ATOM_UDEF_STEREO_COUNT>
0

> <PUBCHEM_BOND_DEF_STEREO_COUNT>
0

> <PUBCHEM_BOND_UDEF_STEREO_COUNT>
0

> <PUBCHEM_ISOTOPIC_ATOM_COUNT>
0

> <PUBCHEM_COMPONENT_COUNT>
1

> <PUBCHEM_CACTVS_TAUTO_COUNT>
38

> <PUBCHEM_CONFORMER_ID>
0006C12600000001

> <PUBCHEM_MMFF94_ENERGY>
110.2821

> <PUBCHEM_FEATURE_SELFOVERLAP>
55.868

> <PUBCHEM_SHAPE_FINGERPRINT>
10319926 262 18338783586310821842
10411042 1 17904486551784248803
10498660 4 18337951190676613473
11112241 14 16699746111540963825
11595378 159 17603855690061617104
12107183 9 18045207246943375010
12236239 1 17530684290412618010
12390115 104 18269850735013818105
12403259 415 18410013208488528389
13140716 1 17832991924673220675
13402501 40 18343018908773340096
14787075 74 18342733048714004861
14790565 3 18197506125729342377
15042514 8 18191312778730725475
15196674 1 18411419544290617880
15961568 22 18116153449537627444
16087824 20 18409446991700707311
17844677 252 18410582811720720560
20510252 161 18413392025021957251
20645477 56 18409171008457184582
20715895 44 18191013504945310005
21033648 29 18411128126201276016
21065198 57 18411139152041746414
21133410 127 17971465445715972268
21267235 1 18409457998451439195
21279426 13 18268151955184216078
21315764 268 18334852822896986124
21623110 236 18341622550365149049
21859007 373 17680126509731254188
221357 26 18130509652427528388
23227448 37 18340485672516096772
23402539 116 18413103982887562495
23557571 272 18341339967487024062
23559900 14 18270680849324124142
245318 6 16594226084441377844
350125 39 18265616481370193978
3545911 37 18412266129715906790
4073 2 18187089498912944914
4214541 1 18411139126039437766
469060 322 16950282910168402151
5104073 3 18336266751695035330
5283173 99 18409164411355574520
59755656 215 18340773654922499678
9709674 26 18343027679350123470
9981440 41 18187651262891137339

> <PUBCHEM_SHAPE_MULTIPOLES>
488.11
12.24
3.67
0.8
8.82
0.73
-0.08
4.4
-1.39
-1.77
0.14
-0.11
0.31
1.43

> <PUBCHEM_SHAPE_SELFOVERLAP>
1074.684

> <PUBCHEM_SHAPE_VOLUME>
263.5

> <PUBCHEM_COORDINATE_TYPE>
2
5
10

$$$$
