155173
  -OEChem-02172602243D

 38 39  0     1  0  0  0  0  0999 V2000
    2.6710   -1.1180    1.1619 O   0  0  0  0  0  0  0  0  0  0  0  0
    4.9200   -0.6921    0.9795 O   0  0  0  0  0  0  0  0  0  0  0  0
   -5.2730   -0.8144    1.3202 O   0  0  0  0  0  0  0  0  0  0  0  0
    1.4473   -0.5521    0.6463 C   0  0  1  0  0  0  0  0  0  0  0  0
    1.7679    0.9058    0.3136 C   0  0  2  0  0  0  0  0  0  0  0  0
    0.9786   -1.3939   -0.5436 C   0  0  0  0  0  0  0  0  0  0  0  0
   -0.5273   -1.2481   -0.8597 C   0  0  1  0  0  0  0  0  0  0  0  0
    1.0189    1.4819   -0.8914 C   0  0  0  0  0  0  0  0  0  0  0  0
   -1.1415    0.1476   -0.8121 C   0  0  0  0  0  0  0  0  0  0  0  0
    3.2519    0.8450    0.1559 C   0  0  0  0  0  0  0  0  0  0  0  0
   -0.4650    1.3114   -0.8087 C   0  0  0  0  0  0  0  0  0  0  0  0
   -2.6489    0.1800   -0.7124 C   0  0  0  0  0  0  0  0  0  0  0  0
   -0.8124   -1.9232   -2.2085 C   0  0  0  0  0  0  0  0  0  0  0  0
    3.7566   -0.3846    0.7928 C   0  0  0  0  0  0  0  0  0  0  0  0
   -3.1057    0.0836    0.7329 C   0  0  0  0  0  0  0  0  0  0  0  0
    4.0788    1.6915   -0.4638 C   0  0  0  0  0  0  0  0  0  0  0  0
   -4.6199    0.1151    0.8488 C   0  0  0  0  0  0  0  0  0  0  0  0
   -5.2973    1.3644    0.3482 C   0  0  0  0  0  0  0  0  0  0  0  0
    0.7092   -0.6071    1.4555 H   0  0  0  0  0  0  0  0  0  0  0  0
    1.5529    1.5163    1.2019 H   0  0  0  0  0  0  0  0  0  0  0  0
    1.1791   -2.4526   -0.3258 H   0  0  0  0  0  0  0  0  0  0  0  0
    1.5914   -1.1787   -1.4287 H   0  0  0  0  0  0  0  0  0  0  0  0
   -1.0395   -1.8404   -0.0886 H   0  0  0  0  0  0  0  0  0  0  0  0
    1.3797    1.0612   -1.8386 H   0  0  0  0  0  0  0  0  0  0  0  0
    1.2301    2.5576   -0.9591 H   0  0  0  0  0  0  0  0  0  0  0  0
   -1.0299    2.2405   -0.7518 H   0  0  0  0  0  0  0  0  0  0  0  0
   -3.0227    1.1094   -1.1613 H   0  0  0  0  0  0  0  0  0  0  0  0
   -3.1076   -0.6176   -1.3059 H   0  0  0  0  0  0  0  0  0  0  0  0
   -0.3850   -2.9319   -2.2343 H   0  0  0  0  0  0  0  0  0  0  0  0
   -1.8839   -2.0272   -2.4027 H   0  0  0  0  0  0  0  0  0  0  0  0
   -0.3744   -1.3527   -3.0354 H   0  0  0  0  0  0  0  0  0  0  0  0
   -2.7056    0.9059    1.3378 H   0  0  0  0  0  0  0  0  0  0  0  0
   -2.7586   -0.8495    1.1918 H   0  0  0  0  0  0  0  0  0  0  0  0
    3.7055    2.5927   -0.9379 H   0  0  0  0  0  0  0  0  0  0  0  0
    5.1481    1.5143   -0.5129 H   0  0  0  0  0  0  0  0  0  0  0  0
   -5.3557    1.3452   -0.7423 H   0  0  0  0  0  0  0  0  0  0  0  0
   -6.3100    1.4174    0.7582 H   0  0  0  0  0  0  0  0  0  0  0  0
   -4.7478    2.2479    0.6834 H   0  0  0  0  0  0  0  0  0  0  0  0
  1  4  1  0  0  0  0
  1 14  1  0  0  0  0
  2 14  2  0  0  0  0
  3 17  2  0  0  0  0
  4  5  1  0  0  0  0
  4  6  1  0  0  0  0
  4 19  1  0  0  0  0
  5  8  1  0  0  0  0
  5 10  1  0  0  0  0
  5 20  1  0  0  0  0
  6  7  1  0  0  0  0
  6 21  1  0  0  0  0
  6 22  1  0  0  0  0
  7  9  1  0  0  0  0
  7 13  1  0  0  0  0
  7 23  1  0  0  0  0
  8 11  1  0  0  0  0
  8 24  1  0  0  0  0
  8 25  1  0  0  0  0
  9 11  2  0  0  0  0
  9 12  1  0  0  0  0
 10 14  1  0  0  0  0
 10 16  2  0  0  0  0
 11 26  1  0  0  0  0
 12 15  1  0  0  0  0
 12 27  1  0  0  0  0
 12 28  1  0  0  0  0
 13 29  1  0  0  0  0
 13 30  1  0  0  0  0
 13 31  1  0  0  0  0
 15 17  1  0  0  0  0
 15 32  1  0  0  0  0
 15 33  1  0  0  0  0
 16 34  1  0  0  0  0
 16 35  1  0  0  0  0
 17 18  1  0  0  0  0
 18 36  1  0  0  0  0
 18 37  1  0  0  0  0
 18 38  1  0  0  0  0
M  END
> <PUBCHEM_COMPOUND_CID>
155173

> <PUBCHEM_CONFORMER_RMSD>
0.6

> <PUBCHEM_CONFORMER_DIVERSEORDER>
6
90
19
82
80
69
77
26
50
83
75
73
25
51
41
63
9
47
68
88
12
44
14
65
54
67
23
58
3
57
86
79
76
59
32
43
53
5
31
64
55
85
66
52
78
62
17
30
37
49
34
71
81
72
40
46
8
28
36
22
29
84
38
1
11
60
2
45
91
4
16
89
87
21
35
10
15
33
13
92
56
27
48
74
42
39
70
20
7
61
24
18

> <PUBCHEM_MMFF94_PARTIAL_CHARGES>
19
1 -0.43
10 -0.12
11 -0.29
12 0.14
14 0.71
15 0.06
16 -0.3
17 0.45
18 0.06
2 -0.57
26 0.15
3 -0.57
34 0.15
35 0.15
4 0.28
5 0.14
7 0.14
8 0.14
9 -0.28

> <PUBCHEM_EFFECTIVE_ROTOR_COUNT>
3.8

> <PUBCHEM_PHARMACOPHORE_FEATURES>
4
1 2 acceptor
1 3 acceptor
5 1 4 5 10 14 rings
7 4 5 6 7 8 9 11 rings

> <PUBCHEM_HEAVY_ATOM_COUNT>
18

> <PUBCHEM_ATOM_DEF_STEREO_COUNT>
3

> <PUBCHEM_ATOM_UDEF_STEREO_COUNT>
0

> <PUBCHEM_BOND_DEF_STEREO_COUNT>
0

> <PUBCHEM_BOND_UDEF_STEREO_COUNT>
0

> <PUBCHEM_ISOTOPIC_ATOM_COUNT>
0

> <PUBCHEM_COMPONENT_COUNT>
1

> <PUBCHEM_CACTVS_TAUTO_COUNT>
3

> <PUBCHEM_CONFORMER_ID>
00025E2500000006

> <PUBCHEM_MMFF94_ENERGY>
36.4149

> <PUBCHEM_FEATURE_SELFOVERLAP>
20.332

> <PUBCHEM_SHAPE_FINGERPRINT>
10498660 4 14332854721466821035
11045977 3 17822013120575262145
12251169 10 18407761447767314171
12507560 40 17821722827820027565
12596602 18 18410578413642815113
12633257 1 17894905230879911595
12730499 353 13542474176479705173
12788726 201 17198525319364594343
12892183 10 18260269663762039161
12916748 109 14836406938962295019
13583140 156 17677314023010602583
13760787 5 18334566967069464468
14341114 176 18040723558473015441
14787075 74 17313953046470114768
14943859 89 15985101916323815471
15309172 13 18272363161832395311
15375462 189 18336255812687612328
16945 1 18129644362435541940
17844478 74 17385992962781199372
1798214 20 11314029088873748121
1813 80 14706930648693445567
18222031 100 14418134040969573579
18785283 64 16806739584061454860
20261772 1 18412823611801381495
204376 136 17918276450540928271
20671657 53 12324246083381958911
20739085 24 18259990370523246020
21041028 32 18260259716660187596
21267235 1 18187363182950446538
212916 134 16988836176941487358
21637258 2 15936400139772208058
22182313 1 18126280835816992948
231179 274 16128658514012070561
23184049 59 18411416215422107149
23557571 272 14562519665913842326
26918003 58 18186518783331286329
2748010 2 17693355760611394958
276578 36 17632863009772502263
2838139 119 14117508835762147882
314173 85 14562527392950306831
4047638 21 14908185247997864712
427121 178 17275118223168882343
465052 167 18187654625786680227
5104073 3 18198322135355752386

> <PUBCHEM_SHAPE_MULTIPOLES>
352.82
9.89
1.75
1.42
7.04
0.43
-0.14
-2.89
4.89
-0.2
-0.79
0.18
0.45
-0.79

> <PUBCHEM_SHAPE_SELFOVERLAP>
727.383

> <PUBCHEM_SHAPE_VOLUME>
202.2

> <PUBCHEM_COORDINATE_TYPE>
2
5
10

$$$$
