26477
  -OEChem-02172602263D

 47 48  0     1  0  0  0  0  0999 V2000
   -0.5122   -0.0647    0.3730 O   0  0  0  0  0  0  0  0  0  0  0  0
   -3.9146    0.6815    0.9513 O   0  0  0  0  0  0  0  0  0  0  0  0
   -1.5164    1.7875    1.2944 O   0  0  0  0  0  0  0  0  0  0  0  0
   -4.0893   -1.9159   -0.3091 O   0  0  0  0  0  0  0  0  0  0  0  0
    4.1425   -0.8960   -0.2114 N   0  0  1  0  0  0  0  0  0  0  0  0
    3.2702   -0.2586    0.8125 C   0  0  2  0  0  0  0  0  0  0  0  0
    1.8301   -0.5963    0.4198 C   0  0  2  0  0  0  0  0  0  0  0  0
    3.6687    1.2152    0.8389 C   0  0  0  0  0  0  0  0  0  0  0  0
    1.9268   -0.8045   -1.0845 C   0  0  0  0  0  0  0  0  0  0  0  0
    3.2695   -1.5048   -1.2258 C   0  0  0  0  0  0  0  0  0  0  0  0
    5.0070    0.1519   -0.7739 C   0  0  0  0  0  0  0  0  0  0  0  0
    5.0940    1.1916    0.3258 C   0  0  0  0  0  0  0  0  0  0  0  0
    0.7605    0.3992    0.8347 C   0  0  0  0  0  0  0  0  0  0  0  0
   -2.8773    0.1340    0.1212 C   0  0  2  0  0  0  0  0  0  0  0  0
   -1.5776    0.7325    0.6736 C   0  0  0  0  0  0  0  0  0  0  0  0
   -3.1701    0.6275   -1.3277 C   0  0  0  0  0  0  0  0  0  0  0  0
   -2.8937   -1.4064    0.2946 C   0  0  1  0  0  0  0  0  0  0  0  0
   -2.1038    0.2557   -2.3621 C   0  0  0  0  0  0  0  0  0  0  0  0
   -3.4340    2.1411   -1.3946 C   0  0  0  0  0  0  0  0  0  0  0  0
   -2.8805   -1.8705    1.7492 C   0  0  0  0  0  0  0  0  0  0  0  0
    3.4991   -0.7041    1.7887 H   0  0  0  0  0  0  0  0  0  0  0  0
    1.5710   -1.5726    0.8566 H   0  0  0  0  0  0  0  0  0  0  0  0
    3.5994    1.6478    1.8414 H   0  0  0  0  0  0  0  0  0  0  0  0
    3.0614    1.8208    0.1575 H   0  0  0  0  0  0  0  0  0  0  0  0
    1.9329    0.1542   -1.6172 H   0  0  0  0  0  0  0  0  0  0  0  0
    1.1059   -1.4131   -1.4762 H   0  0  0  0  0  0  0  0  0  0  0  0
    3.1540   -2.5682   -0.9830 H   0  0  0  0  0  0  0  0  0  0  0  0
    3.6670   -1.4510   -2.2451 H   0  0  0  0  0  0  0  0  0  0  0  0
    4.5689    0.6129   -1.6688 H   0  0  0  0  0  0  0  0  0  0  0  0
    5.9913   -0.2460   -1.0386 H   0  0  0  0  0  0  0  0  0  0  0  0
    5.4196    2.1680   -0.0441 H   0  0  0  0  0  0  0  0  0  0  0  0
    5.7832    0.8693    1.1156 H   0  0  0  0  0  0  0  0  0  0  0  0
    0.9420    1.3865    0.3980 H   0  0  0  0  0  0  0  0  0  0  0  0
    0.7397    0.4887    1.9271 H   0  0  0  0  0  0  0  0  0  0  0  0
   -4.1133    0.1718   -1.6568 H   0  0  0  0  0  0  0  0  0  0  0  0
   -2.0511   -1.8757   -0.2259 H   0  0  0  0  0  0  0  0  0  0  0  0
   -1.9221   -0.8231   -2.3740 H   0  0  0  0  0  0  0  0  0  0  0  0
   -2.4259    0.5444   -3.3686 H   0  0  0  0  0  0  0  0  0  0  0  0
   -1.1539    0.7617   -2.1619 H   0  0  0  0  0  0  0  0  0  0  0  0
   -4.2688    2.4378   -0.7521 H   0  0  0  0  0  0  0  0  0  0  0  0
   -2.5508    2.7168   -1.0999 H   0  0  0  0  0  0  0  0  0  0  0  0
   -3.6950    2.4390   -2.4164 H   0  0  0  0  0  0  0  0  0  0  0  0
   -1.9912   -1.5227    2.2820 H   0  0  0  0  0  0  0  0  0  0  0  0
   -2.8979   -2.9655    1.7915 H   0  0  0  0  0  0  0  0  0  0  0  0
   -3.7718   -1.5312    2.2876 H   0  0  0  0  0  0  0  0  0  0  0  0
   -4.7512    0.2556    0.6967 H   0  0  0  0  0  0  0  0  0  0  0  0
   -3.9400   -1.9564   -1.2689 H   0  0  0  0  0  0  0  0  0  0  0  0
  1 13  1  0  0  0  0
  1 15  1  0  0  0  0
  2 14  1  0  0  0  0
  2 46  1  0  0  0  0
  3 15  2  0  0  0  0
  4 17  1  0  0  0  0
  4 47  1  0  0  0  0
  5  6  1  0  0  0  0
  5 10  1  0  0  0  0
  5 11  1  0  0  0  0
  6  7  1  0  0  0  0
  6  8  1  0  0  0  0
  6 21  1  0  0  0  0
  7  9  1  0  0  0  0
  7 13  1  0  0  0  0
  7 22  1  0  0  0  0
  8 12  1  0  0  0  0
  8 23  1  0  0  0  0
  8 24  1  0  0  0  0
  9 10  1  0  0  0  0
  9 25  1  0  0  0  0
  9 26  1  0  0  0  0
 10 27  1  0  0  0  0
 10 28  1  0  0  0  0
 11 12  1  0  0  0  0
 11 29  1  0  0  0  0
 11 30  1  0  0  0  0
 12 31  1  0  0  0  0
 12 32  1  0  0  0  0
 13 33  1  0  0  0  0
 13 34  1  0  0  0  0
 14 15  1  0  0  0  0
 14 16  1  0  0  0  0
 14 17  1  0  0  0  0
 16 18  1  0  0  0  0
 16 19  1  0  0  0  0
 16 35  1  0  0  0  0
 17 20  1  0  0  0  0
 17 36  1  0  0  0  0
 18 37  1  0  0  0  0
 18 38  1  0  0  0  0
 18 39  1  0  0  0  0
 19 40  1  0  0  0  0
 19 41  1  0  0  0  0
 19 42  1  0  0  0  0
 20 43  1  0  0  0  0
 20 44  1  0  0  0  0
 20 45  1  0  0  0  0
M  END
> <PUBCHEM_COMPOUND_CID>
26477

> <PUBCHEM_CONFORMER_RMSD>
0.8

> <PUBCHEM_CONFORMER_DIVERSEORDER>
8
286
85
58
159
328
239
314
250
96
94
101
273
106
148
190
158
15
113
230
235
278
275
238
136
69
91
46
18
241
172
131
13
97
124
289
169
309
312
218
50
160
92
62
282
44
259
173
201
181
253
245
60
240
284
318
45
198
280
228
72
191
133
324
142
128
283
281
103
41
220
175
4
311
304
251
61
248
215
303
122
260
38
192
120
147
258
211
246
3
288
249
310
2
168
109
52
217
77
127
306
219
81
143
149
82
1
214
327
35
182
307
24
223
74
43
137
197
229
174
265
70
292
257
232
322
53
242
84
6
302
121
11
315
79
243
183
151
323
28
87
36
88
59
125
163
171
119
187
49
189
83
115
165
54
5
287
274
112
180
89
317
252
93
134
33
270
140
296
80
177
170
290
105
99
226
10
203
104
14
22
279
206
233
224
166
167
146
320
157
17
9
254
222
225
300
130
95
155
71
305
184
64
73
42
262
16
117
268
204
193
68
12
76
176
150
63
247
7
209
256
264
234
291
321
196
116
207
111
267
202
301
100
123
298
213
102
263
27
271
34
269
326
277
237
208
110
205
66
56
297
138
144
153
161
86
162
108
154
114
212
51
200
25
30
308
132
107
261
39
266
126
129
20
195
48
325
67
139
31
141
194
316
26
299
152
319
21
227
255
164
221
244
188
118
156
295
32
98
313
179
90
236
178
285
272
185
293
135
47
75
78
210
65
216
55
276
23
199
57
186
37
294
29
19
231
40
145

> <PUBCHEM_MMFF94_PARTIAL_CHARGES>
14
1 -0.43
10 0.27
11 0.27
13 0.28
14 0.34
15 0.66
17 0.28
2 -0.68
3 -0.57
4 -0.68
46 0.4
47 0.4
5 -0.81
6 0.27

> <PUBCHEM_EFFECTIVE_ROTOR_COUNT>
7.2

> <PUBCHEM_PHARMACOPHORE_FEATURES>
9
1 2 acceptor
1 2 donor
1 3 acceptor
1 4 acceptor
1 4 donor
1 5 cation
3 16 18 19 hydrophobe
5 5 6 7 9 10 rings
5 5 6 8 11 12 rings

> <PUBCHEM_HEAVY_ATOM_COUNT>
20

> <PUBCHEM_ATOM_DEF_STEREO_COUNT>
3

> <PUBCHEM_ATOM_UDEF_STEREO_COUNT>
1

> <PUBCHEM_BOND_DEF_STEREO_COUNT>
0

> <PUBCHEM_BOND_UDEF_STEREO_COUNT>
0

> <PUBCHEM_ISOTOPIC_ATOM_COUNT>
0

> <PUBCHEM_COMPONENT_COUNT>
1

> <PUBCHEM_CACTVS_TAUTO_COUNT>
1

> <PUBCHEM_CONFORMER_ID>
0000676D00000008

> <PUBCHEM_MMFF94_ENERGY>
44.6321

> <PUBCHEM_FEATURE_SELFOVERLAP>
46.087

> <PUBCHEM_SHAPE_FINGERPRINT>
10498660 4 18261108552447658492
10646746 165 17821725027322960444
10680689 15 17894917321096551464
11405975 8 17896029958592887490
11615757 297 16056880238840419026
121448 382 17385725841263601458
12173636 292 17823689760149653645
12553582 1 16558744624599046026
12616971 3 16989129755779401990
12670546 56 15068616102599367580
128620 24 18409730685850929862
13224815 77 18060136548567850146
13296908 3 18272371966436380098
13583140 156 18187914106441654914
14004511 7 13695868108368910808
14251764 38 17458626769679753116
14289901 80 17458345238909833202
15309172 13 15698004028484971047
15375462 189 16559031601471333658
15788980 27 17458060444023688138
15961568 22 17604993809346421524
18186145 218 18335986389515539954
18915474 69 16559022805742243540
192875 21 14923939076581530894
19489759 90 17167854288326399984
200 152 16774072955859939329
20281475 54 14764350414429142014
20645477 56 17968375650484188437
20645477 70 17917151598421781982
20871999 31 18261383456313914085
21709351 56 18412823603844735652
221490 88 17988374676319764486
23402539 116 18272368668402396880
23402655 69 17560802100499869584
235170 7 18409165502572556942
23557571 272 18259985980771127356
23559900 14 18338514128452112354
23598288 3 16557924302893536904
2838139 119 11819811030895882911
3268164 11 17676201390236735447
4325135 7 18337394966858034814
4921388 177 18186524297853022883
5104073 3 18060142016193535954
5281201 14 18411707590846853500
633830 44 18130511846913268990
9709674 26 17845382041843564126
9971528 1 15140951834677644234

> <PUBCHEM_SHAPE_MULTIPOLES>
383.13
10.52
1.87
1.68
7.45
0.08
0.4
-0.86
0.67
-2.37
0.03
-0.28
-0.22
1.26

> <PUBCHEM_SHAPE_SELFOVERLAP>
778.11

> <PUBCHEM_SHAPE_VOLUME>
225.1

> <PUBCHEM_COORDINATE_TYPE>
2
5
10

$$$$
