10141655
  -OEChem-02172602473D

 67 72  0     0  0  0  0  0  0999 V2000
   -5.5493    0.4264    0.1594 O   0  0  0  0  0  0  0  0  0  0  0  0
    6.4382   -2.4478   -1.0041 O   0  0  0  0  0  0  0  0  0  0  0  0
    4.9428   -4.3303   -1.1681 O   0  0  0  0  0  0  0  0  0  0  0  0
   -2.3956   -2.0699    0.9364 O   0  0  0  0  0  0  0  0  0  0  0  0
   -3.4625   -0.2696    1.8235 O   0  0  0  0  0  0  0  0  0  0  0  0
   -3.3561    2.1561   -0.3073 N   0  0  0  0  0  0  0  0  0  0  0  0
    2.6337    1.0305    1.1572 N   0  0  0  0  0  0  0  0  0  0  0  0
   -0.4430    2.4969   -0.2468 C   0  0  0  0  0  0  0  0  0  0  0  0
   -1.3449    2.8898    0.9345 C   0  0  0  0  0  0  0  0  0  0  0  0
   -1.1294    1.4079   -1.0873 C   0  0  0  0  0  0  0  0  0  0  0  0
   -2.7537    3.2547    0.4598 C   0  0  0  0  0  0  0  0  0  0  0  0
   -2.5461    1.8266   -1.4880 C   0  0  0  0  0  0  0  0  0  0  0  0
    0.9518    2.1069    0.1879 C   0  0  0  0  0  0  0  0  0  0  0  0
    2.1632    2.7652   -0.1644 C   0  0  0  0  0  0  0  0  0  0  0  0
   -4.7220    2.4982   -0.7036 C   0  0  0  0  0  0  0  0  0  0  0  0
    1.2738    1.0445    1.0008 C   0  0  0  0  0  0  0  0  0  0  0  0
    3.2030    2.0699    0.4567 C   0  0  0  0  0  0  0  0  0  0  0  0
   -5.5241    1.2422   -1.0046 C   0  0  0  0  0  0  0  0  0  0  0  0
    3.3540    0.0551    1.9474 C   0  0  0  0  0  0  0  0  0  0  0  0
    2.4758    3.8892   -0.9544 C   0  0  0  0  0  0  0  0  0  0  0  0
    4.5453    2.4440    0.3265 C   0  0  0  0  0  0  0  0  0  0  0  0
    3.8140    4.2751   -1.0936 C   0  0  0  0  0  0  0  0  0  0  0  0
    3.7483   -1.1386    1.1203 C   0  0  0  0  0  0  0  0  0  0  0  0
    4.8311    3.5622   -0.4621 C   0  0  0  0  0  0  0  0  0  0  0  0
    4.9767   -1.1462    0.4551 C   0  0  0  0  0  0  0  0  0  0  0  0
    2.8758   -2.2370    1.0244 C   0  0  0  0  0  0  0  0  0  0  0  0
    5.2941   -2.2627   -0.2908 C   0  0  0  0  0  0  0  0  0  0  0  0
   -5.6535   -0.9260   -0.0360 C   0  0  0  0  0  0  0  0  0  0  0  0
    3.2216   -3.3555    0.2623 C   0  0  0  0  0  0  0  0  0  0  0  0
    4.4401   -3.3377   -0.3846 C   0  0  0  0  0  0  0  0  0  0  0  0
   -4.6638   -1.7943    0.4250 C   0  0  0  0  0  0  0  0  0  0  0  0
   -6.7684   -1.4315   -0.7049 C   0  0  0  0  0  0  0  0  0  0  0  0
    6.2090   -3.7601   -1.5568 C   0  0  0  0  0  0  0  0  0  0  0  0
   -4.7893   -3.1680    0.2173 C   0  0  0  0  0  0  0  0  0  0  0  0
   -6.8938   -2.8052   -0.9125 C   0  0  0  0  0  0  0  0  0  0  0  0
   -5.9043   -3.6733   -0.4515 C   0  0  0  0  0  0  0  0  0  0  0  0
   -3.4926   -1.2877    1.1266 C   0  0  0  0  0  0  0  0  0  0  0  0
   -0.3565    3.3850   -0.8885 H   0  0  0  0  0  0  0  0  0  0  0  0
   -0.9093    3.7410    1.4725 H   0  0  0  0  0  0  0  0  0  0  0  0
   -1.4092    2.0643    1.6560 H   0  0  0  0  0  0  0  0  0  0  0  0
   -1.1760    0.4654   -0.5258 H   0  0  0  0  0  0  0  0  0  0  0  0
   -0.5399    1.2040   -1.9899 H   0  0  0  0  0  0  0  0  0  0  0  0
   -3.3607    3.4672    1.3484 H   0  0  0  0  0  0  0  0  0  0  0  0
   -2.7166    4.1749   -0.1381 H   0  0  0  0  0  0  0  0  0  0  0  0
   -2.4932    2.6793   -2.1779 H   0  0  0  0  0  0  0  0  0  0  0  0
   -2.9837    0.9896   -2.0421 H   0  0  0  0  0  0  0  0  0  0  0  0
   -5.2261    3.0021    0.1319 H   0  0  0  0  0  0  0  0  0  0  0  0
   -4.7441    3.1898   -1.5546 H   0  0  0  0  0  0  0  0  0  0  0  0
    0.6484    0.3015    1.4783 H   0  0  0  0  0  0  0  0  0  0  0  0
   -6.5544    1.5277   -1.2474 H   0  0  0  0  0  0  0  0  0  0  0  0
   -5.1187    0.7019   -1.8683 H   0  0  0  0  0  0  0  0  0  0  0  0
    4.2287    0.5358    2.3995 H   0  0  0  0  0  0  0  0  0  0  0  0
    2.7100   -0.2469    2.7829 H   0  0  0  0  0  0  0  0  0  0  0  0
    1.6981    4.4587   -1.4548 H   0  0  0  0  0  0  0  0  0  0  0  0
    5.3467    1.9138    0.8268 H   0  0  0  0  0  0  0  0  0  0  0  0
    4.0610    5.1420   -1.7007 H   0  0  0  0  0  0  0  0  0  0  0  0
    5.8632    3.8825   -0.5800 H   0  0  0  0  0  0  0  0  0  0  0  0
    5.6737   -0.3205    0.5251 H   0  0  0  0  0  0  0  0  0  0  0  0
    1.9205   -2.2270    1.5436 H   0  0  0  0  0  0  0  0  0  0  0  0
    2.5514   -4.2041    0.1856 H   0  0  0  0  0  0  0  0  0  0  0  0
   -7.5518   -0.7687   -1.0621 H   0  0  0  0  0  0  0  0  0  0  0  0
    6.2420   -3.6910   -2.6501 H   0  0  0  0  0  0  0  0  0  0  0  0
    7.0119   -4.4269   -1.2220 H   0  0  0  0  0  0  0  0  0  0  0  0
   -4.0421   -3.8713    0.5757 H   0  0  0  0  0  0  0  0  0  0  0  0
   -7.7632   -3.1990   -1.4308 H   0  0  0  0  0  0  0  0  0  0  0  0
   -6.0040   -4.7431   -0.6103 H   0  0  0  0  0  0  0  0  0  0  0  0
   -1.6108   -1.7188    1.4090 H   0  0  0  0  0  0  0  0  0  0  0  0
  1 18  1  0  0  0  0
  1 28  1  0  0  0  0
  2 27  1  0  0  0  0
  2 33  1  0  0  0  0
  3 30  1  0  0  0  0
  3 33  1  0  0  0  0
  4 37  1  0  0  0  0
  4 67  1  0  0  0  0
  5 37  2  0  0  0  0
  6 11  1  0  0  0  0
  6 12  1  0  0  0  0
  6 15  1  0  0  0  0
  7 16  1  0  0  0  0
  7 17  1  0  0  0  0
  7 19  1  0  0  0  0
  8  9  1  0  0  0  0
  8 10  1  0  0  0  0
  8 13  1  0  0  0  0
  8 38  1  0  0  0  0
  9 11  1  0  0  0  0
  9 39  1  0  0  0  0
  9 40  1  0  0  0  0
 10 12  1  0  0  0  0
 10 41  1  0  0  0  0
 10 42  1  0  0  0  0
 11 43  1  0  0  0  0
 11 44  1  0  0  0  0
 12 45  1  0  0  0  0
 12 46  1  0  0  0  0
 13 14  1  0  0  0  0
 13 16  2  0  0  0  0
 14 17  1  0  0  0  0
 14 20  2  0  0  0  0
 15 18  1  0  0  0  0
 15 47  1  0  0  0  0
 15 48  1  0  0  0  0
 16 49  1  0  0  0  0
 17 21  2  0  0  0  0
 18 50  1  0  0  0  0
 18 51  1  0  0  0  0
 19 23  1  0  0  0  0
 19 52  1  0  0  0  0
 19 53  1  0  0  0  0
 20 22  1  0  0  0  0
 20 54  1  0  0  0  0
 21 24  1  0  0  0  0
 21 55  1  0  0  0  0
 22 24  2  0  0  0  0
 22 56  1  0  0  0  0
 23 25  2  0  0  0  0
 23 26  1  0  0  0  0
 24 57  1  0  0  0  0
 25 27  1  0  0  0  0
 25 58  1  0  0  0  0
 26 29  2  0  0  0  0
 26 59  1  0  0  0  0
 27 30  2  0  0  0  0
 28 31  1  0  0  0  0
 28 32  2  0  0  0  0
 29 30  1  0  0  0  0
 29 60  1  0  0  0  0
 31 34  2  0  0  0  0
 31 37  1  0  0  0  0
 32 35  1  0  0  0  0
 32 61  1  0  0  0  0
 33 62  1  0  0  0  0
 33 63  1  0  0  0  0
 34 36  1  0  0  0  0
 34 64  1  0  0  0  0
 35 36  2  0  0  0  0
 35 65  1  0  0  0  0
 36 66  1  0  0  0  0
M  END
> <PUBCHEM_COMPOUND_CID>
10141655

> <PUBCHEM_CONFORMER_RMSD>
1.4

> <PUBCHEM_CONFORMER_DIVERSEORDER>
1
85
46
162
72
76
123
35
140
104
67
95
87
156
102
79
142
133
47
58
136
148
137
25
141
22
53
80
78
59
149
125
66
128
96
83
34
90
52
44
75
165
127
64
88
82
157
116
14
97
9
57
7
121
119
117
120
146
63
21
41
139
159
143
113
60
69
130
155
126
115
107
84
134
103
29
30
124
105
20
45
81
40
114
145
129
62
70
131
4
74
56
111
144
108
100
158
55
73
152
23
32
8
98
135
48
86
19
101
37
51
42
94
16
168
160
132
39
49
68
161
118
18
99
6
92
50
43
112
33
71
31
36
38
61
65
91
153
163
13
151
109
11
5
17
167
27
110
154
164
150
28
106
77
24
3
166
26
147
89
93
138
122
12
54
2
15
10

> <PUBCHEM_MMFF94_PARTIAL_CHARGES>
47
1 -0.36
11 0.27
12 0.27
13 -0.18
15 0.27
16 -0.3
17 -0.15
18 0.28
19 0.4
2 -0.36
20 -0.15
21 -0.15
22 -0.15
23 -0.14
24 -0.15
25 -0.15
26 -0.15
27 0.08
28 0.08
29 -0.15
3 -0.36
30 0.08
31 0.09
32 -0.15
33 0.56
34 -0.15
35 -0.15
36 -0.15
37 0.63
4 -0.65
49 0.15
5 -0.57
54 0.15
55 0.15
56 0.15
57 0.15
58 0.15
59 0.15
6 -0.81
60 0.15
61 0.15
64 0.15
65 0.15
66 0.15
67 0.5
7 0.05
8 0.18

> <PUBCHEM_EFFECTIVE_ROTOR_COUNT>
9.8

> <PUBCHEM_PHARMACOPHORE_FEATURES>
14
1 1 acceptor
1 2 acceptor
1 3 acceptor
1 4 acceptor
1 5 acceptor
1 6 cation
1 7 cation
3 4 5 37 anion
5 2 3 27 30 33 rings
5 7 13 14 16 17 rings
6 14 17 20 21 22 24 rings
6 23 25 26 27 29 30 rings
6 28 31 32 34 35 36 rings
6 6 8 9 10 11 12 rings

> <PUBCHEM_HEAVY_ATOM_COUNT>
37

> <PUBCHEM_ATOM_DEF_STEREO_COUNT>
0

> <PUBCHEM_ATOM_UDEF_STEREO_COUNT>
0

> <PUBCHEM_BOND_DEF_STEREO_COUNT>
0

> <PUBCHEM_BOND_UDEF_STEREO_COUNT>
0

> <PUBCHEM_ISOTOPIC_ATOM_COUNT>
0

> <PUBCHEM_COMPONENT_COUNT>
1

> <PUBCHEM_CACTVS_TAUTO_COUNT>
1

> <PUBCHEM_CONFORMER_ID>
009ABFD700000001

> <PUBCHEM_MMFF94_ENERGY>
91.0056

> <PUBCHEM_FEATURE_SELFOVERLAP>
71.36

> <PUBCHEM_SHAPE_FINGERPRINT>
10010297 198 18267866258006337870
10864689 126 17903065634551254263
10940486 97 18046920277037446492
11136131 41 18188758570274419554
11315621 136 18408882928179377848
11443803 9 17825944000059644768
11513181 2 18337391659628189583
117089 54 18413390929953340591
11828422 8 12180416841565309142
12120059 20 18335709287258603360
12522641 126 18335430105731352868
12522641 68 17327754301960998964
12633046 712 18272076202631743257
131258 43 18059585646816001736
1361 4 18412260653210903717
1361 87 18339355241445455639
13692114 37 18122337154709119816
15001296 14 18187354468018827963
15264996 44 17917723408597317310
15361156 5 18114191808638708321
15392192 29 17984150266129129780
15705408 1 18041012721647324492
15781502 13 17627530246036273878
16067689 302 18191870244417312523
16989378 47 18270968938655979540
17492 89 18411979143943214700
20028762 73 18192432094320723808
21307412 95 18123750850828997228
21792965 302 18260834757542386406
23559900 14 18338790131165955081
255183 451 18411985741434559188
437795 70 18334860467976229243
46194498 28 18334853952647653154
5912855 24 18342746225727320145
7970288 3 18049438146000995914

> <PUBCHEM_SHAPE_MULTIPOLES>
722.13
18.28
6.9
1.38
13.84
1.28
0.12
16.78
-4.79
-7.07
-2.38
-0.61
0.2
1.2

> <PUBCHEM_SHAPE_SELFOVERLAP>
1594.549

> <PUBCHEM_SHAPE_VOLUME>
387.9

> <PUBCHEM_COORDINATE_TYPE>
2
5
10

$$$$
