326995
  -OEChem-02172602263D

 51 53  0     1  0  0  0  0  0999 V2000
   -3.9180   -1.1170   -0.9430 O   0  0  0  0  0  0  0  0  0  0  0  0
    2.0902    0.5849    0.7937 C   0  0  1  0  0  0  0  0  0  0  0  0
    1.5023   -0.8728    0.8765 C   0  0  2  0  0  0  0  0  0  0  0  0
    2.6253    1.0339   -0.6263 C   0  0  0  0  0  0  0  0  0  0  0  0
    2.4981   -1.8501    0.1905 C   0  0  0  0  0  0  0  0  0  0  0  0
    3.5392   -0.0710   -1.2120 C   0  0  0  0  0  0  0  0  0  0  0  0
    1.1413    1.5835    1.4819 C   0  0  0  0  0  0  0  0  0  0  0  0
    2.8823   -1.4431   -1.2232 C   0  0  0  0  0  0  0  0  0  0  0  0
    0.0623   -0.9233    0.3515 C   0  0  0  0  0  0  0  0  0  0  0  0
   -0.3082    1.5272    1.0123 C   0  0  0  0  0  0  0  0  0  0  0  0
    1.4169   -1.3335    2.3609 C   0  0  0  0  0  0  0  0  0  0  0  0
   -0.7780    0.2052    0.4635 C   0  0  0  0  0  0  0  0  0  0  0  0
    3.4985    2.3054   -0.4765 C   0  0  0  0  0  0  0  0  0  0  0  0
    1.5372    1.3670   -1.6652 C   0  0  0  0  0  0  0  0  0  0  0  0
   -0.4881   -2.1053   -0.1812 C   0  0  0  0  0  0  0  0  0  0  0  0
   -2.1131    0.1320    0.0229 C   0  0  0  0  0  0  0  0  0  0  0  0
   -3.0204    1.3222    0.1208 C   0  0  0  0  0  0  0  0  0  0  0  0
   -2.6272   -1.0430   -0.5156 C   0  0  0  0  0  0  0  0  0  0  0  0
   -1.8142   -2.1626   -0.6157 C   0  0  0  0  0  0  0  0  0  0  0  0
   -4.2227    1.0613    1.0424 C   0  0  0  0  0  0  0  0  0  0  0  0
   -3.5037    1.7990   -1.2584 C   0  0  0  0  0  0  0  0  0  0  0  0
    2.9929    0.5700    1.4265 H   0  0  0  0  0  0  0  0  0  0  0  0
    2.1273   -2.8803    0.1851 H   0  0  0  0  0  0  0  0  0  0  0  0
    3.4215   -1.8887    0.7868 H   0  0  0  0  0  0  0  0  0  0  0  0
    4.4647   -0.1319   -0.6232 H   0  0  0  0  0  0  0  0  0  0  0  0
    3.8483    0.1864   -2.2332 H   0  0  0  0  0  0  0  0  0  0  0  0
    1.5101    2.6118    1.4071 H   0  0  0  0  0  0  0  0  0  0  0  0
    1.1543    1.3775    2.5606 H   0  0  0  0  0  0  0  0  0  0  0  0
    3.5919   -2.1750   -1.6271 H   0  0  0  0  0  0  0  0  0  0  0  0
    2.0104   -1.4576   -1.8850 H   0  0  0  0  0  0  0  0  0  0  0  0
   -0.4351    2.2995    0.2456 H   0  0  0  0  0  0  0  0  0  0  0  0
   -0.9279    1.8060    1.8744 H   0  0  0  0  0  0  0  0  0  0  0  0
    0.6782   -0.7670    2.9383 H   0  0  0  0  0  0  0  0  0  0  0  0
    1.1238   -2.3887    2.4299 H   0  0  0  0  0  0  0  0  0  0  0  0
    2.3847   -1.2290    2.8646 H   0  0  0  0  0  0  0  0  0  0  0  0
    3.9899    2.5589   -1.4235 H   0  0  0  0  0  0  0  0  0  0  0  0
    2.9062    3.1767   -0.1804 H   0  0  0  0  0  0  0  0  0  0  0  0
    4.2853    2.1623    0.2726 H   0  0  0  0  0  0  0  0  0  0  0  0
    0.8455    0.5404   -1.8368 H   0  0  0  0  0  0  0  0  0  0  0  0
    0.9615    2.2516   -1.3824 H   0  0  0  0  0  0  0  0  0  0  0  0
    1.9899    1.6001   -2.6373 H   0  0  0  0  0  0  0  0  0  0  0  0
    0.0977   -3.0155   -0.2600 H   0  0  0  0  0  0  0  0  0  0  0  0
   -2.5234    2.1911    0.5553 H   0  0  0  0  0  0  0  0  0  0  0  0
   -2.1967   -3.0945   -1.0238 H   0  0  0  0  0  0  0  0  0  0  0  0
   -4.9435    0.3483    0.6337 H   0  0  0  0  0  0  0  0  0  0  0  0
   -4.7695    1.9954    1.2172 H   0  0  0  0  0  0  0  0  0  0  0  0
   -3.8924    0.6862    2.0177 H   0  0  0  0  0  0  0  0  0  0  0  0
   -2.6564    1.9531   -1.9362 H   0  0  0  0  0  0  0  0  0  0  0  0
   -4.0255    2.7582   -1.1605 H   0  0  0  0  0  0  0  0  0  0  0  0
   -4.2015    1.1107   -1.7420 H   0  0  0  0  0  0  0  0  0  0  0  0
   -4.0900   -2.0115   -1.2837 H   0  0  0  0  0  0  0  0  0  0  0  0
  1 18  1  0  0  0  0
  1 51  1  0  0  0  0
  2  3  1  0  0  0  0
  2  4  1  0  0  0  0
  2  7  1  0  0  0  0
  2 22  1  0  0  0  0
  3  5  1  0  0  0  0
  3  9  1  0  0  0  0
  3 11  1  0  0  0  0
  4  6  1  0  0  0  0
  4 13  1  0  0  0  0
  4 14  1  0  0  0  0
  5  8  1  0  0  0  0
  5 23  1  0  0  0  0
  5 24  1  0  0  0  0
  6  8  1  0  0  0  0
  6 25  1  0  0  0  0
  6 26  1  0  0  0  0
  7 10  1  0  0  0  0
  7 27  1  0  0  0  0
  7 28  1  0  0  0  0
  8 29  1  0  0  0  0
  8 30  1  0  0  0  0
  9 12  2  0  0  0  0
  9 15  1  0  0  0  0
 10 12  1  0  0  0  0
 10 31  1  0  0  0  0
 10 32  1  0  0  0  0
 11 33  1  0  0  0  0
 11 34  1  0  0  0  0
 11 35  1  0  0  0  0
 12 16  1  0  0  0  0
 13 36  1  0  0  0  0
 13 37  1  0  0  0  0
 13 38  1  0  0  0  0
 14 39  1  0  0  0  0
 14 40  1  0  0  0  0
 14 41  1  0  0  0  0
 15 19  2  0  0  0  0
 15 42  1  0  0  0  0
 16 17  1  0  0  0  0
 16 18  2  0  0  0  0
 17 20  1  0  0  0  0
 17 21  1  0  0  0  0
 17 43  1  0  0  0  0
 18 19  1  0  0  0  0
 19 44  1  0  0  0  0
 20 45  1  0  0  0  0
 20 46  1  0  0  0  0
 20 47  1  0  0  0  0
 21 48  1  0  0  0  0
 21 49  1  0  0  0  0
 21 50  1  0  0  0  0
M  END
> <PUBCHEM_COMPOUND_CID>
326995

> <PUBCHEM_CONFORMER_RMSD>
0.6

> <PUBCHEM_CONFORMER_DIVERSEORDER>
2
9
1
6
3
5
8
7
4

> <PUBCHEM_MMFF94_PARTIAL_CHARGES>
13
1 -0.53
10 0.14
12 -0.14
15 -0.15
16 -0.14
17 0.14
18 0.08
19 -0.15
3 0.14
42 0.15
44 0.15
51 0.45
9 -0.14

> <PUBCHEM_EFFECTIVE_ROTOR_COUNT>
2.2

> <PUBCHEM_PHARMACOPHORE_FEATURES>
6
1 1 donor
3 17 20 21 hydrophobe
3 4 13 14 hydrophobe
6 2 3 4 5 6 8 rings
6 2 3 7 9 10 12 rings
6 9 12 15 16 18 19 rings

> <PUBCHEM_HEAVY_ATOM_COUNT>
21

> <PUBCHEM_ATOM_DEF_STEREO_COUNT>
0

> <PUBCHEM_ATOM_UDEF_STEREO_COUNT>
2

> <PUBCHEM_BOND_DEF_STEREO_COUNT>
0

> <PUBCHEM_BOND_UDEF_STEREO_COUNT>
0

> <PUBCHEM_ISOTOPIC_ATOM_COUNT>
0

> <PUBCHEM_COMPONENT_COUNT>
1

> <PUBCHEM_CACTVS_TAUTO_COUNT>
9

> <PUBCHEM_CONFORMER_ID>
0004FD5300000002

> <PUBCHEM_MMFF94_ENERGY>
80.9542

> <PUBCHEM_FEATURE_SELFOVERLAP>
30.515

> <PUBCHEM_SHAPE_FINGERPRINT>
10498660 4 18260819406754348741
10756046 5 18341057371460409366
10764073 3 17622962904650667256
10863032 1 18130514110376774052
10948715 1 18265335191282909412
11370993 70 18338232786239372060
11578080 2 17900504979577000520
11640471 11 17750228274045625204
11715629 250 18187081771359294541
12788726 201 16772695224883407472
128993 33 18187362125533981813
13134695 92 16056587708665354810
13140716 1 18343013355391254163
13224815 77 18334010605833102329
13464514 151 18339931514703900832
13693222 15 10737287965236652637
14181834 199 18333445426833930318
14251745 187 18124032596605191256
14386348 128 18411979165734263553
14713325 29 16812675924996978732
14787075 74 17391360980575547219
14790565 3 17986129417346178481
15163728 17 17534931846250512060
15775835 57 18410016545789017025
1601671 61 17760652468911045521
16752209 62 18200861946944070703
16945 1 18187367623081577626
17980427 23 18053908923509266384
1813 80 17607224482258013250
18186145 218 18340770355738548837
18981168 100 17459448023033741893
19765921 60 18187368778559649368
19862831 5 18272092677576839489
20233049 118 18268421352475097616
20361792 2 13973701545507554754
20600515 1 17912338962943536336
20645476 183 18333732390578755415
20691752 17 17748823020680659182
21501502 16 18342453759680631439
21864079 5 18261669290477033413
22854114 111 18040999514100064121
2334 1 18342164601149768811
23419403 2 15046675584501405866
23557571 272 17846492669015617802
23559900 14 18059860550370793678
2748010 2 18200579385029125075
3060560 45 18193270797757792719
474 4 17604715606664602852
5161694 15 17988651778291404092
74978 22 18060134345244463233
7832392 63 18408046208109228436
81228 2 18051404364933644731
9981440 41 17904487647274469168

> <PUBCHEM_SHAPE_MULTIPOLES>
426.3
6.61
2.52
1.62
3.73
0.13
0.4
-1.88
-1.88
-0.33
-0.25
-0.58
-0.06
-0.55

> <PUBCHEM_SHAPE_SELFOVERLAP>
905.288

> <PUBCHEM_SHAPE_VOLUME>
238.3

> <PUBCHEM_COORDINATE_TYPE>
2
5
10

$$$$
