45027804
  -OEChem-02172602413D

 50 52  0     1  0  0  0  0  0999 V2000
   -2.0240   -1.0139   -0.6258 O   0  0  0  0  0  0  0  0  0  0  0  0
   -5.9371   -1.9468    0.2015 O   0  0  0  0  0  0  0  0  0  0  0  0
   -3.8435   -3.8364    0.8359 O   0  0  0  0  0  0  0  0  0  0  0  0
   -2.5339    1.2523   -0.8459 O   0  0  0  0  0  0  0  0  0  0  0  0
   -4.9677    0.8159    0.5304 O   0  0  0  0  0  0  0  0  0  0  0  0
    0.0675   -2.7813   -0.3875 O   0  0  0  0  0  0  0  0  0  0  0  0
   -2.9640    3.8912   -0.0783 O   0  0  0  0  0  0  0  0  0  0  0  0
    7.7212   -1.7053    0.0908 O   0  0  0  0  0  0  0  0  0  0  0  0
   -4.5975   -1.5687    0.5225 C   0  0  1  0  0  0  0  0  0  0  0  0
   -3.6633   -2.6743    0.0306 C   0  0  1  0  0  0  0  0  0  0  0  0
   -2.2021   -2.2258    0.1094 C   0  0  1  0  0  0  0  0  0  0  0  0
   -4.2723   -0.2321   -0.1445 C   0  0  2  0  0  0  0  0  0  0  0  0
   -2.7751    0.0699   -0.0837 C   0  0  1  0  0  0  0  0  0  0  0  0
   -1.2590   -3.2670   -0.4848 C   0  0  0  0  0  0  0  0  0  0  0  0
   -1.4906    2.0394   -0.4414 C   0  0  0  0  0  0  0  0  0  0  0  0
   -0.2008    1.5091   -0.4145 C   0  0  0  0  0  0  0  0  0  0  0  0
   -1.7088    3.3626   -0.0579 C   0  0  0  0  0  0  0  0  0  0  0  0
    0.8709    2.3020   -0.0043 C   0  0  0  0  0  0  0  0  0  0  0  0
   -0.6371    4.1558    0.3524 C   0  0  0  0  0  0  0  0  0  0  0  0
    0.6528    3.6254    0.3792 C   0  0  0  0  0  0  0  0  0  0  0  0
    2.2162    1.7502    0.0229 C   0  0  0  0  0  0  0  0  0  0  0  0
    2.5182    0.4305    0.0537 C   0  0  0  0  0  0  0  0  0  0  0  0
    3.8813   -0.1291    0.0636 C   0  0  0  0  0  0  0  0  0  0  0  0
    4.9587    0.6658    0.4550 C   0  0  0  0  0  0  0  0  0  0  0  0
    4.0943   -1.4536   -0.3182 C   0  0  0  0  0  0  0  0  0  0  0  0
    6.2491    0.1361    0.4646 C   0  0  0  0  0  0  0  0  0  0  0  0
    5.3846   -1.9834   -0.3085 C   0  0  0  0  0  0  0  0  0  0  0  0
    6.4619   -1.1885    0.0827 C   0  0  0  0  0  0  0  0  0  0  0  0
   -4.5585   -1.4813    1.6146 H   0  0  0  0  0  0  0  0  0  0  0  0
   -3.9246   -2.9465   -0.9993 H   0  0  0  0  0  0  0  0  0  0  0  0
   -4.6227   -0.2260   -1.1835 H   0  0  0  0  0  0  0  0  0  0  0  0
   -1.8990   -2.0494    1.1505 H   0  0  0  0  0  0  0  0  0  0  0  0
   -2.4732    0.2418    0.9603 H   0  0  0  0  0  0  0  0  0  0  0  0
   -1.4769   -3.4304   -1.5455 H   0  0  0  0  0  0  0  0  0  0  0  0
   -1.3243   -4.2198    0.0492 H   0  0  0  0  0  0  0  0  0  0  0  0
   -6.0085   -2.0158   -0.7658 H   0  0  0  0  0  0  0  0  0  0  0  0
   -3.6008   -3.6091    1.7497 H   0  0  0  0  0  0  0  0  0  0  0  0
   -4.6677    0.8301    1.4553 H   0  0  0  0  0  0  0  0  0  0  0  0
    0.6502   -3.4557   -0.7762 H   0  0  0  0  0  0  0  0  0  0  0  0
   -0.0476    0.4925   -0.7605 H   0  0  0  0  0  0  0  0  0  0  0  0
   -0.7931    5.1880    0.6543 H   0  0  0  0  0  0  0  0  0  0  0  0
    1.4754    4.2585    0.7033 H   0  0  0  0  0  0  0  0  0  0  0  0
    3.0065    2.4954   -0.0071 H   0  0  0  0  0  0  0  0  0  0  0  0
   -2.9230    4.8162    0.2196 H   0  0  0  0  0  0  0  0  0  0  0  0
    1.7336   -0.3204    0.0845 H   0  0  0  0  0  0  0  0  0  0  0  0
    4.8386    1.6947    0.7805 H   0  0  0  0  0  0  0  0  0  0  0  0
    3.2668   -2.0876   -0.6275 H   0  0  0  0  0  0  0  0  0  0  0  0
    7.0798    0.7639    0.7757 H   0  0  0  0  0  0  0  0  0  0  0  0
    5.5444   -3.0158   -0.6075 H   0  0  0  0  0  0  0  0  0  0  0  0
    8.3419   -1.0176    0.3871 H   0  0  0  0  0  0  0  0  0  0  0  0
  1 11  1  0  0  0  0
  1 13  1  0  0  0  0
  2  9  1  0  0  0  0
  2 36  1  0  0  0  0
  3 10  1  0  0  0  0
  3 37  1  0  0  0  0
  4 13  1  0  0  0  0
  4 15  1  0  0  0  0
  5 12  1  0  0  0  0
  5 38  1  0  0  0  0
  6 14  1  0  0  0  0
  6 39  1  0  0  0  0
  7 17  1  0  0  0  0
  7 44  1  0  0  0  0
  8 28  1  0  0  0  0
  8 50  1  0  0  0  0
  9 10  1  0  0  0  0
  9 12  1  0  0  0  0
  9 29  1  0  0  0  0
 10 11  1  0  0  0  0
 10 30  1  0  0  0  0
 11 14  1  0  0  0  0
 11 32  1  0  0  0  0
 12 13  1  0  0  0  0
 12 31  1  0  0  0  0
 13 33  1  0  0  0  0
 14 34  1  0  0  0  0
 14 35  1  0  0  0  0
 15 16  1  0  0  0  0
 15 17  2  0  0  0  0
 16 18  2  0  0  0  0
 16 40  1  0  0  0  0
 17 19  1  0  0  0  0
 18 20  1  0  0  0  0
 18 21  1  0  0  0  0
 19 20  2  0  0  0  0
 19 41  1  0  0  0  0
 20 42  1  0  0  0  0
 21 22  2  0  0  0  0
 21 43  1  0  0  0  0
 22 23  1  0  0  0  0
 22 45  1  0  0  0  0
 23 24  2  0  0  0  0
 23 25  1  0  0  0  0
 24 26  1  0  0  0  0
 24 46  1  0  0  0  0
 25 27  2  0  0  0  0
 25 47  1  0  0  0  0
 26 28  2  0  0  0  0
 26 48  1  0  0  0  0
 27 28  1  0  0  0  0
 27 49  1  0  0  0  0
M  END
> <PUBCHEM_COMPOUND_CID>
45027804

> <PUBCHEM_CONFORMER_RMSD>
0.8

> <PUBCHEM_CONFORMER_DIVERSEORDER>
1
134
137
12
30
13
48
119
77
18
68
43
140
19
4
33
72
141
61
133
138
21
129
144
153
130
123
27
83
98
22
16
69
10
57
152
103
85
102
107
124
29
20
114
17
142
113
3
126
117
86
7
93
147
148
15
46
84
49
136
150
63
108
101
90
53
50
6
70
35
145
121
139
58
47
149
125
111
9
25
5
99
128
73
32
34
118
14
8
31
64
91
71
79
127
2
143
135
75
11
88
87
55
122
106
104
36
24
42
154
89
40
94
151
120
60
45
78
82
146
95
23
132
116
39
105
62
109
100
66
80
26
96
81
74
51
92
112
67
37
56
131
115
54
28
65
59
155
110
76
52
97
41
38
44

> <PUBCHEM_MMFF94_PARTIAL_CHARGES>
43
1 -0.56
10 0.28
11 0.28
12 0.28
13 0.56
14 0.28
15 0.08
16 -0.15
17 0.08
18 0.03
19 -0.15
2 -0.68
20 -0.15
21 -0.18
22 -0.18
23 0.03
24 -0.15
25 -0.15
26 -0.15
27 -0.15
28 0.08
3 -0.68
36 0.4
37 0.4
38 0.4
39 0.4
4 -0.36
40 0.15
41 0.15
42 0.15
43 0.15
44 0.45
45 0.15
46 0.15
47 0.15
48 0.15
49 0.15
5 -0.68
50 0.45
6 -0.68
7 -0.53
8 -0.53
9 0.28

> <PUBCHEM_EFFECTIVE_ROTOR_COUNT>
6.2

> <PUBCHEM_PHARMACOPHORE_FEATURES>
15
1 1 acceptor
1 2 acceptor
1 2 donor
1 3 acceptor
1 3 donor
1 4 acceptor
1 5 acceptor
1 5 donor
1 6 acceptor
1 6 donor
1 7 donor
1 8 donor
6 1 9 10 11 12 13 rings
6 15 16 17 18 19 20 rings
6 23 24 25 26 27 28 rings

> <PUBCHEM_HEAVY_ATOM_COUNT>
28

> <PUBCHEM_ATOM_DEF_STEREO_COUNT>
5

> <PUBCHEM_ATOM_UDEF_STEREO_COUNT>
0

> <PUBCHEM_BOND_DEF_STEREO_COUNT>
1

> <PUBCHEM_BOND_UDEF_STEREO_COUNT>
0

> <PUBCHEM_ISOTOPIC_ATOM_COUNT>
0

> <PUBCHEM_COMPONENT_COUNT>
1

> <PUBCHEM_CACTVS_TAUTO_COUNT>
11

> <PUBCHEM_CONFORMER_ID>
02AF11DC00000001

> <PUBCHEM_MMFF94_ENERGY>
91.0993

> <PUBCHEM_FEATURE_SELFOVERLAP>
76.186

> <PUBCHEM_SHAPE_FINGERPRINT>
10411042 1 18338516460239552167
10462674 296 17768798016760738702
10939801 23 18410570735085340450
117089 54 18044668726031268970
11756154 5 18408879651161626714
11756154 67 18337957903684688711
12107183 9 18341626944812746009
12645989 146 18270398416048019743
12760667 363 18413102857917198381
12788726 201 18333725793635473138
13140716 1 18339929337224124909
13402501 40 18413670205896181046
13631057 29 18408039585876221816
138480 1 15817064271436644196
14394314 77 18339645542543302521
14420673 8 18408888459970908083
14725015 67 18410852174858228939
14790565 3 17259625842003513912
14866123 147 18411704245236485841
15042514 8 18410856538197296708
15250474 111 18044366142202265266
15320467 1 18410855473504414646
15352361 1 18410574019817138132
15400415 2 17545882629881805056
15927050 60 17908982107132507205
16110190 28 18341614871105547972
16719943 64 18265892454129717146
17492 89 17905609157466480043
21403212 168 18272097037955264449
21796203 349 17975171830281199712
23559900 14 18267013032989363689
25025965 108 17628607814375675126
3004659 81 18113334241409012716
329604 57 18408606976841859404
335352 9 18410009932161893325
3421961 26 18196090173183967680
3882209 13 17262960021321591438
4073 2 18268709412586089304
437815 12 18410005576832634605
4409770 3 18261948540967016813
44880168 125 17489596658186290566
463206 1 18191588751405709626
484985 159 18335415717205924805
5309563 4 18339079418377050990
54583773 228 18335989723686814318
563151 97 17546719353598433269
56633871 153 18269839894601233099
6138700 20 18409446990656046311
6371380 46 18341886339030947249
7097593 13 17835521905439679405
7970288 3 18409728508086674810
9961470 85 17690269418423834066

> <PUBCHEM_SHAPE_MULTIPOLES>
529.27
14.6
5.4
0.72
20.31
2.55
0
-12.2
1.86
-5.13
0.3
-0.13
-0.05
0.85

> <PUBCHEM_SHAPE_SELFOVERLAP>
1132.479

> <PUBCHEM_SHAPE_VOLUME>
290.5

> <PUBCHEM_COORDINATE_TYPE>
2
5
10

$$$$
