5282101
  -OEChem-02172602493D

 92 94  0     1  0  0  0  0  0999 V2000
   -2.9201   -4.2219    1.9506 O   0  0  0  0  0  0  0  0  0  0  0  0
   -4.3336   -3.2593   -1.0312 O   0  0  0  0  0  0  0  0  0  0  0  0
   -0.2173   -3.9071   -1.2963 O   0  0  0  0  0  0  0  0  0  0  0  0
   -2.8519   -0.2223   -1.7250 O   0  0  0  0  0  0  0  0  0  0  0  0
    3.5719   -5.2020    0.2887 O   0  0  0  0  0  0  0  0  0  0  0  0
    4.1399   -1.7617    1.1310 O   0  0  0  0  0  0  0  0  0  0  0  0
    6.0834    0.1208   -0.7222 O   0  0  0  0  0  0  0  0  0  0  0  0
    3.9543    4.3575   -0.7296 O   0  0  0  0  0  0  0  0  0  0  0  0
    1.5052   -0.6173    1.5340 O   0  0  0  0  0  0  0  0  0  0  0  0
    1.5180    4.4820    0.0086 O   0  0  0  0  0  0  0  0  0  0  0  0
   -2.2779    2.2738    2.3461 O   0  0  0  0  0  0  0  0  0  0  0  0
   -0.8184    3.4687    0.9353 N   0  0  0  0  0  0  0  0  0  0  0  0
   -2.6554   -2.2949    0.4740 C   0  0  1  0  0  0  0  0  0  0  0  0
   -2.1627   -3.7361    0.8395 C   0  0  1  0  0  0  0  0  0  0  0  0
   -4.1522   -2.3092    0.0220 C   0  0  1  0  0  0  0  0  0  0  0  0
   -0.6311   -3.9750    1.0894 C   0  0  1  0  0  0  0  0  0  0  0  0
   -4.7845   -0.9390   -0.4090 C   0  0  1  0  0  0  0  0  0  0  0  0
    0.2531   -3.3878   -0.0468 C   0  0  1  0  0  0  0  0  0  0  0  0
   -4.2639   -0.4052   -1.7793 C   0  0  1  0  0  0  0  0  0  0  0  0
   -2.4641   -1.3126    1.6300 C   0  0  0  0  0  0  0  0  0  0  0  0
    1.7862   -3.6288    0.0797 C   0  0  1  0  0  0  0  0  0  0  0  0
   -0.1455   -3.5879    2.4910 C   0  0  0  0  0  0  0  0  0  0  0  0
   -4.9457    0.8935   -2.3089 C   0  0  2  0  0  0  0  0  0  0  0  0
   -6.3153   -1.1087   -0.4429 C   0  0  0  0  0  0  0  0  0  0  0  0
    2.1706   -5.1119    0.1253 C   0  0  0  0  0  0  0  0  0  0  0  0
    2.5124   -2.9821   -1.0865 C   0  0  0  0  0  0  0  0  0  0  0  0
   -4.4382    1.2443   -3.7172 C   0  0  0  0  0  0  0  0  0  0  0  0
   -4.8757    2.1544   -1.4665 C   0  0  0  0  0  0  0  0  0  0  0  0
    3.3438   -1.9243   -1.1305 C   0  0  0  0  0  0  0  0  0  0  0  0
   -3.9764    2.4663   -0.5203 C   0  0  0  0  0  0  0  0  0  0  0  0
    3.7808   -1.1990    0.1057 C   0  0  0  0  0  0  0  0  0  0  0  0
    3.8757   -1.4558   -2.4593 C   0  0  0  0  0  0  0  0  0  0  0  0
    3.8052    0.2779    0.0292 C   0  0  0  0  0  0  0  0  0  0  0  0
   -3.9795    3.7304    0.1949 C   0  0  0  0  0  0  0  0  0  0  0  0
    2.6936    1.0697    0.3692 C   0  0  0  0  0  0  0  0  0  0  0  0
    4.9705    0.8701   -0.4705 C   0  0  0  0  0  0  0  0  0  0  0  0
   -3.1037    4.1159    1.1412 C   0  0  0  0  0  0  0  0  0  0  0  0
    2.7188    2.4386    0.0801 C   0  0  0  0  0  0  0  0  0  0  0  0
    5.0050    2.2421   -0.7030 C   0  0  0  0  0  0  0  0  0  0  0  0
    3.8769    3.0224   -0.4518 C   0  0  0  0  0  0  0  0  0  0  0  0
    1.5185    0.5135    1.0674 C   0  0  0  0  0  0  0  0  0  0  0  0
    1.5257    3.2891    0.2948 C   0  0  0  0  0  0  0  0  0  0  0  0
    0.3020    2.6609    0.8665 C   0  0  0  0  0  0  0  0  0  0  0  0
   -2.0254    3.1778    1.5570 C   0  0  0  0  0  0  0  0  0  0  0  0
    0.3355    1.3772    1.2343 C   0  0  0  0  0  0  0  0  0  0  0  0
   -3.1579    5.4291    1.8536 C   0  0  0  0  0  0  0  0  0  0  0  0
    6.2498    2.8739   -1.2422 C   0  0  0  0  0  0  0  0  0  0  0  0
   -2.0514   -1.9678   -0.3724 H   0  0  0  0  0  0  0  0  0  0  0  0
   -2.4211   -4.3962    0.0014 H   0  0  0  0  0  0  0  0  0  0  0  0
   -4.7352   -2.6784    0.8754 H   0  0  0  0  0  0  0  0  0  0  0  0
   -0.5333   -5.0701    1.0491 H   0  0  0  0  0  0  0  0  0  0  0  0
   -4.5753   -0.2055    0.3739 H   0  0  0  0  0  0  0  0  0  0  0  0
    0.1075   -2.3012   -0.0819 H   0  0  0  0  0  0  0  0  0  0  0  0
   -4.4351   -1.1835   -2.5334 H   0  0  0  0  0  0  0  0  0  0  0  0
   -2.7525   -0.2958    1.3583 H   0  0  0  0  0  0  0  0  0  0  0  0
   -3.0498   -1.6042    2.5076 H   0  0  0  0  0  0  0  0  0  0  0  0
   -1.4185   -1.2493    1.9245 H   0  0  0  0  0  0  0  0  0  0  0  0
    2.1307   -3.1697    1.0108 H   0  0  0  0  0  0  0  0  0  0  0  0
    0.0450   -2.5190    2.5873 H   0  0  0  0  0  0  0  0  0  0  0  0
   -0.8586   -3.8808    3.2670 H   0  0  0  0  0  0  0  0  0  0  0  0
    0.7948   -4.0987    2.7250 H   0  0  0  0  0  0  0  0  0  0  0  0
   -6.0135    0.6664   -2.4230 H   0  0  0  0  0  0  0  0  0  0  0  0
   -6.6400   -1.6995   -1.3054 H   0  0  0  0  0  0  0  0  0  0  0  0
   -6.6797   -1.6005    0.4655 H   0  0  0  0  0  0  0  0  0  0  0  0
   -6.8168   -0.1370   -0.4911 H   0  0  0  0  0  0  0  0  0  0  0  0
   -3.8147   -4.4323    1.6349 H   0  0  0  0  0  0  0  0  0  0  0  0
   -5.2856   -3.4318   -1.1195 H   0  0  0  0  0  0  0  0  0  0  0  0
    1.8788   -5.6526   -0.7819 H   0  0  0  0  0  0  0  0  0  0  0  0
    1.7094   -5.6141    0.9797 H   0  0  0  0  0  0  0  0  0  0  0  0
    2.2747   -3.4490   -2.0443 H   0  0  0  0  0  0  0  0  0  0  0  0
   -4.5552    0.3914   -4.3943 H   0  0  0  0  0  0  0  0  0  0  0  0
   -3.3790    1.5248   -3.7063 H   0  0  0  0  0  0  0  0  0  0  0  0
   -5.0022    2.0820   -4.1435 H   0  0  0  0  0  0  0  0  0  0  0  0
   -1.0482   -3.4589   -1.5227 H   0  0  0  0  0  0  0  0  0  0  0  0
   -2.5959    0.0608   -0.8351 H   0  0  0  0  0  0  0  0  0  0  0  0
   -5.6463    2.8883   -1.7037 H   0  0  0  0  0  0  0  0  0  0  0  0
   -3.1856    1.7794   -0.2649 H   0  0  0  0  0  0  0  0  0  0  0  0
    3.9893   -5.0254   -0.5712 H   0  0  0  0  0  0  0  0  0  0  0  0
    4.9689   -1.4915   -2.4714 H   0  0  0  0  0  0  0  0  0  0  0  0
    3.5321   -2.0860   -3.2875 H   0  0  0  0  0  0  0  0  0  0  0  0
    3.5444   -0.4368   -2.6812 H   0  0  0  0  0  0  0  0  0  0  0  0
   -4.7711    4.4255   -0.0808 H   0  0  0  0  0  0  0  0  0  0  0  0
   -0.5253    0.8749    1.6530 H   0  0  0  0  0  0  0  0  0  0  0  0
   -2.2537    6.0129    1.6535 H   0  0  0  0  0  0  0  0  0  0  0  0
   -3.2373    5.2738    2.9345 H   0  0  0  0  0  0  0  0  0  0  0  0
   -4.0187    6.0285    1.5394 H   0  0  0  0  0  0  0  0  0  0  0  0
   -0.7365    4.3630    0.4559 H   0  0  0  0  0  0  0  0  0  0  0  0
    6.5323    3.7490   -0.6461 H   0  0  0  0  0  0  0  0  0  0  0  0
    7.1151    2.2043   -1.2143 H   0  0  0  0  0  0  0  0  0  0  0  0
    6.1031    3.1726   -2.2855 H   0  0  0  0  0  0  0  0  0  0  0  0
    5.9917   -0.7676   -0.3425 H   0  0  0  0  0  0  0  0  0  0  0  0
    4.6732    4.5513   -1.3505 H   0  0  0  0  0  0  0  0  0  0  0  0
  1 14  1  0  0  0  0
  1 66  1  0  0  0  0
  2 15  1  0  0  0  0
  2 67  1  0  0  0  0
  3 18  1  0  0  0  0
  3 74  1  0  0  0  0
  4 19  1  0  0  0  0
  4 75  1  0  0  0  0
  5 25  1  0  0  0  0
  5 78  1  0  0  0  0
  6 31  2  0  0  0  0
  7 36  1  0  0  0  0
  7 91  1  0  0  0  0
  8 40  1  0  0  0  0
  8 92  1  0  0  0  0
  9 41  2  0  0  0  0
 10 42  2  0  0  0  0
 11 44  2  0  0  0  0
 12 43  1  0  0  0  0
 12 44  1  0  0  0  0
 12 87  1  0  0  0  0
 13 14  1  0  0  0  0
 13 15  1  0  0  0  0
 13 20  1  0  0  0  0
 13 48  1  0  0  0  0
 14 16  1  0  0  0  0
 14 49  1  0  0  0  0
 15 17  1  0  0  0  0
 15 50  1  0  0  0  0
 16 18  1  0  0  0  0
 16 22  1  0  0  0  0
 16 51  1  0  0  0  0
 17 19  1  0  0  0  0
 17 24  1  0  0  0  0
 17 52  1  0  0  0  0
 18 21  1  0  0  0  0
 18 53  1  0  0  0  0
 19 23  1  0  0  0  0
 19 54  1  0  0  0  0
 20 55  1  0  0  0  0
 20 56  1  0  0  0  0
 20 57  1  0  0  0  0
 21 25  1  0  0  0  0
 21 26  1  0  0  0  0
 21 58  1  0  0  0  0
 22 59  1  0  0  0  0
 22 60  1  0  0  0  0
 22 61  1  0  0  0  0
 23 27  1  0  0  0  0
 23 28  1  0  0  0  0
 23 62  1  0  0  0  0
 24 63  1  0  0  0  0
 24 64  1  0  0  0  0
 24 65  1  0  0  0  0
 25 68  1  0  0  0  0
 25 69  1  0  0  0  0
 26 29  2  0  0  0  0
 26 70  1  0  0  0  0
 27 71  1  0  0  0  0
 27 72  1  0  0  0  0
 27 73  1  0  0  0  0
 28 30  2  0  0  0  0
 28 76  1  0  0  0  0
 29 31  1  0  0  0  0
 29 32  1  0  0  0  0
 30 34  1  0  0  0  0
 30 77  1  0  0  0  0
 31 33  1  0  0  0  0
 32 79  1  0  0  0  0
 32 80  1  0  0  0  0
 32 81  1  0  0  0  0
 33 35  2  0  0  0  0
 33 36  1  0  0  0  0
 34 37  2  0  0  0  0
 34 82  1  0  0  0  0
 35 38  1  0  0  0  0
 35 41  1  0  0  0  0
 36 39  2  0  0  0  0
 37 44  1  0  0  0  0
 37 46  1  0  0  0  0
 38 40  2  0  0  0  0
 38 42  1  0  0  0  0
 39 40  1  0  0  0  0
 39 47  1  0  0  0  0
 41 45  1  0  0  0  0
 42 43  1  0  0  0  0
 43 45  2  0  0  0  0
 45 83  1  0  0  0  0
 46 84  1  0  0  0  0
 46 85  1  0  0  0  0
 46 86  1  0  0  0  0
 47 88  1  0  0  0  0
 47 89  1  0  0  0  0
 47 90  1  0  0  0  0
M  END
> <PUBCHEM_COMPOUND_CID>
5282101

> <PUBCHEM_CONFORMER_RMSD>
0.8

> <PUBCHEM_CONFORMER_DIVERSEORDER>
1
2

> <PUBCHEM_MMFF94_PARTIAL_CHARGES>
53
1 -0.68
10 -0.57
11 -0.57
12 -0.54
14 0.28
15 0.28
18 0.28
19 0.28
2 -0.68
21 0.14
23 0.14
25 0.28
26 -0.29
28 -0.29
29 -0.12
3 -0.68
30 -0.15
31 0.47
32 0.14
33 0.09
34 -0.15
35 0.09
36 0.08
37 -0.12
38 0.09
39 -0.14
4 -0.68
40 0.08
41 0.47
42 0.47
43 0.12
44 0.62
45 -0.14
46 0.14
47 0.14
5 -0.68
6 -0.57
66 0.4
67 0.4
7 -0.53
70 0.15
74 0.4
75 0.4
76 0.15
77 0.15
78 0.4
8 -0.53
82 0.15
83 0.15
87 0.37
9 -0.57
91 0.45
92 0.45

> <PUBCHEM_EFFECTIVE_ROTOR_COUNT>
3

> <PUBCHEM_PHARMACOPHORE_FEATURES>
19
1 1 acceptor
1 1 donor
1 10 acceptor
1 11 acceptor
1 12 donor
1 2 acceptor
1 2 donor
1 3 acceptor
1 3 donor
1 4 acceptor
1 4 donor
1 5 acceptor
1 5 donor
1 6 acceptor
1 7 donor
1 8 donor
1 9 acceptor
6 33 35 36 38 39 40 rings
6 35 38 41 42 43 45 rings

> <PUBCHEM_HEAVY_ATOM_COUNT>
47

> <PUBCHEM_ATOM_DEF_STEREO_COUNT>
8

> <PUBCHEM_ATOM_UDEF_STEREO_COUNT>
1

> <PUBCHEM_BOND_DEF_STEREO_COUNT>
3

> <PUBCHEM_BOND_UDEF_STEREO_COUNT>
0

> <PUBCHEM_ISOTOPIC_ATOM_COUNT>
0

> <PUBCHEM_COMPONENT_COUNT>
1

> <PUBCHEM_CACTVS_TAUTO_COUNT>
168

> <PUBCHEM_CONFORMER_ID>
0050993500000001

> <PUBCHEM_MMFF94_ENERGY>
166.5785

> <PUBCHEM_FEATURE_SELFOVERLAP>
96.463

> <PUBCHEM_SHAPE_FINGERPRINT>
10190206 1 18267601250694336620
10439779 11 18195513819059648018
10556698 54 18117817942627137855
10622 236 17913187798942822317
10675989 125 18263918848238408790
10771551 21 18337663118862180021
11285246 1 18412261705931792697
12788726 201 18342174496401030152
1361 2 17977958882015327576
14279260 333 18341043035239669262
15150948 74 18195246848392886113
15160629 131 17773853395431215535
15274700 147 16236215236965962052
15320291 9 18340484452629619357
15320467 1 18411423920556370051
15351339 4 18337097978770811067
15968369 26 18192120803037011518
16628084 112 18197210348965359565
17909252 39 18201435947189345313
20764821 26 18122348969324991267
21792964 463 16883857230075547116
354706 35 17762021709212345469
3882209 13 17903335036697292562
44344687 77 17911493697113315111
463206 1 17836929997002353568
50150288 127 17488199114303386393
50677037 204 17619333317277001955
6287921 2 15743039316400139755
66674814 147 18264757783921073368

> <PUBCHEM_SHAPE_MULTIPOLES>
897.69
12.61
8.66
2.26
0.14
1.53
0.92
-4.98
7.04
0.23
-3.25
-2.55
-0.15
-0.95

> <PUBCHEM_SHAPE_SELFOVERLAP>
1886.787

> <PUBCHEM_SHAPE_VOLUME>
503

> <PUBCHEM_COORDINATE_TYPE>
2
5
10

$$$$
