5372332
  -OEChem-02172602523D

 65 65  0     0  0  0  0  0  0999 V2000
    4.0159    1.6854    0.6081 N   0  0  0  0  0  0  0  0  0  0  0  0
    4.2736   -0.5357    0.1525 N   0  0  0  0  0  0  0  0  0  0  0  0
    4.8659    1.7269   -0.5533 C   0  0  0  0  0  0  0  0  0  0  0  0
    3.6865    0.3836    0.8790 C   0  0  0  0  0  0  0  0  0  0  0  0
    5.1777    0.2377   -0.7492 C   0  0  0  0  0  0  0  0  0  0  0  0
    2.7008    0.0095    1.9370 C   0  0  0  0  0  0  0  0  0  0  0  0
    1.2779    0.0253    1.3859 C   0  0  0  0  0  0  0  0  0  0  0  0
    3.4172    2.8797    1.1429 C   0  0  0  0  0  0  0  0  0  0  0  0
    0.2523   -0.2550    2.4486 C   0  0  0  0  0  0  0  0  0  0  0  0
   -0.2354   -1.4768    2.7159 C   0  0  0  0  0  0  0  0  0  0  0  0
    0.1210   -2.7764    2.0412 C   0  0  0  0  0  0  0  0  0  0  0  0
   -1.0136   -3.4768    1.3478 C   0  0  0  0  0  0  0  0  0  0  0  0
   -1.0382   -3.7324    0.0294 C   0  0  0  0  0  0  0  0  0  0  0  0
    0.0131   -3.3909   -0.9941 C   0  0  0  0  0  0  0  0  0  0  0  0
   -0.4893   -3.2146   -2.3975 C   0  0  0  0  0  0  0  0  0  0  0  0
   -0.8223   -0.7420   -2.1480 C   0  0  0  0  0  0  0  0  0  0  0  0
   -0.8620   -2.0329   -2.9122 C   0  0  0  0  0  0  0  0  0  0  0  0
   -0.4905    2.2459   -2.1540 C   0  0  0  0  0  0  0  0  0  0  0  0
    0.4961   -0.0472   -2.3262 C   0  0  0  0  0  0  0  0  0  0  0  0
    0.6487    1.2857   -2.3295 C   0  0  0  0  0  0  0  0  0  0  0  0
   -3.1117    1.7803   -0.4621 C   0  0  0  0  0  0  0  0  0  0  0  0
   -0.7110    2.5954   -0.7115 C   0  0  0  0  0  0  0  0  0  0  0  0
   -1.8263    2.3973    0.0087 C   0  0  0  0  0  0  0  0  0  0  0  0
   -3.4952    0.6045    0.3899 C   0  0  0  0  0  0  0  0  0  0  0  0
   -5.5779    1.6913    1.2658 C   0  0  0  0  0  0  0  0  0  0  0  0
   -4.5933    0.5655    1.1590 C   0  0  0  0  0  0  0  0  0  0  0  0
   -6.6798    1.5666    0.2258 C   0  0  0  0  0  0  0  0  0  0  0  0
    5.7754    2.3119   -0.3865 H   0  0  0  0  0  0  0  0  0  0  0  0
    4.3284    2.1298   -1.4183 H   0  0  0  0  0  0  0  0  0  0  0  0
    5.0177   -0.0644   -1.7891 H   0  0  0  0  0  0  0  0  0  0  0  0
    6.2175    0.0177   -0.4832 H   0  0  0  0  0  0  0  0  0  0  0  0
    2.7984    0.6902    2.7893 H   0  0  0  0  0  0  0  0  0  0  0  0
    2.9499   -0.9941    2.3032 H   0  0  0  0  0  0  0  0  0  0  0  0
    1.0574    1.0106    0.9635 H   0  0  0  0  0  0  0  0  0  0  0  0
    1.1909   -0.6686    0.5458 H   0  0  0  0  0  0  0  0  0  0  0  0
    4.0258    3.7590    0.9068 H   0  0  0  0  0  0  0  0  0  0  0  0
    2.4223    3.0346    0.7168 H   0  0  0  0  0  0  0  0  0  0  0  0
    3.3307    2.8284    2.2321 H   0  0  0  0  0  0  0  0  0  0  0  0
   -0.0948    0.5889    3.0389 H   0  0  0  0  0  0  0  0  0  0  0  0
   -0.9678   -1.5514    3.5185 H   0  0  0  0  0  0  0  0  0  0  0  0
    0.9952   -2.6661    1.3955 H   0  0  0  0  0  0  0  0  0  0  0  0
    0.4658   -3.4535    2.8353 H   0  0  0  0  0  0  0  0  0  0  0  0
   -1.8488   -3.8074    1.9604 H   0  0  0  0  0  0  0  0  0  0  0  0
   -1.9018   -4.2833   -0.3415 H   0  0  0  0  0  0  0  0  0  0  0  0
    0.7287   -4.2236   -1.0201 H   0  0  0  0  0  0  0  0  0  0  0  0
    0.5999   -2.5201   -0.6938 H   0  0  0  0  0  0  0  0  0  0  0  0
   -0.5610   -4.1024   -3.0203 H   0  0  0  0  0  0  0  0  0  0  0  0
   -1.6652   -0.1475   -2.5076 H   0  0  0  0  0  0  0  0  0  0  0  0
   -0.9958   -0.9093   -1.0805 H   0  0  0  0  0  0  0  0  0  0  0  0
   -1.2050   -1.9962   -3.9432 H   0  0  0  0  0  0  0  0  0  0  0  0
   -0.2185    3.1722   -2.6778 H   0  0  0  0  0  0  0  0  0  0  0  0
   -1.3943    1.9123   -2.6664 H   0  0  0  0  0  0  0  0  0  0  0  0
    1.3934   -0.6573   -2.4061 H   0  0  0  0  0  0  0  0  0  0  0  0
    1.6491    1.6996   -2.4256 H   0  0  0  0  0  0  0  0  0  0  0  0
   -3.0475    1.4241   -1.4929 H   0  0  0  0  0  0  0  0  0  0  0  0
   -3.8709    2.5663   -0.4831 H   0  0  0  0  0  0  0  0  0  0  0  0
    0.1216    3.0849   -0.2093 H   0  0  0  0  0  0  0  0  0  0  0  0
   -1.8150    2.7418    1.0421 H   0  0  0  0  0  0  0  0  0  0  0  0
   -2.8466   -0.2674    0.3703 H   0  0  0  0  0  0  0  0  0  0  0  0
   -5.1002    2.6741    1.2068 H   0  0  0  0  0  0  0  0  0  0  0  0
   -6.0274    1.6517    2.2659 H   0  0  0  0  0  0  0  0  0  0  0  0
   -4.8008   -0.3364    1.7289 H   0  0  0  0  0  0  0  0  0  0  0  0
   -6.2805    1.6365   -0.7915 H   0  0  0  0  0  0  0  0  0  0  0  0
   -7.2080    0.6116    0.3196 H   0  0  0  0  0  0  0  0  0  0  0  0
   -7.4123    2.3698    0.3553 H   0  0  0  0  0  0  0  0  0  0  0  0
  1  3  1  0  0  0  0
  1  4  1  0  0  0  0
  1  8  1  0  0  0  0
  2  4  2  0  0  0  0
  2  5  1  0  0  0  0
  3  5  1  0  0  0  0
  3 28  1  0  0  0  0
  3 29  1  0  0  0  0
  4  6  1  0  0  0  0
  5 30  1  0  0  0  0
  5 31  1  0  0  0  0
  6  7  1  0  0  0  0
  6 32  1  0  0  0  0
  6 33  1  0  0  0  0
  7  9  1  0  0  0  0
  7 34  1  0  0  0  0
  7 35  1  0  0  0  0
  8 36  1  0  0  0  0
  8 37  1  0  0  0  0
  8 38  1  0  0  0  0
  9 10  2  0  0  0  0
  9 39  1  0  0  0  0
 10 11  1  0  0  0  0
 10 40  1  0  0  0  0
 11 12  1  0  0  0  0
 11 41  1  0  0  0  0
 11 42  1  0  0  0  0
 12 13  2  0  0  0  0
 12 43  1  0  0  0  0
 13 14  1  0  0  0  0
 13 44  1  0  0  0  0
 14 15  1  0  0  0  0
 14 45  1  0  0  0  0
 14 46  1  0  0  0  0
 15 17  2  0  0  0  0
 15 47  1  0  0  0  0
 16 17  1  0  0  0  0
 16 19  1  0  0  0  0
 16 48  1  0  0  0  0
 16 49  1  0  0  0  0
 17 50  1  0  0  0  0
 18 20  1  0  0  0  0
 18 22  1  0  0  0  0
 18 51  1  0  0  0  0
 18 52  1  0  0  0  0
 19 20  2  0  0  0  0
 19 53  1  0  0  0  0
 20 54  1  0  0  0  0
 21 23  1  0  0  0  0
 21 24  1  0  0  0  0
 21 55  1  0  0  0  0
 21 56  1  0  0  0  0
 22 23  2  0  0  0  0
 22 57  1  0  0  0  0
 23 58  1  0  0  0  0
 24 26  2  0  0  0  0
 24 59  1  0  0  0  0
 25 26  1  0  0  0  0
 25 27  1  0  0  0  0
 25 60  1  0  0  0  0
 25 61  1  0  0  0  0
 26 62  1  0  0  0  0
 27 63  1  0  0  0  0
 27 64  1  0  0  0  0
 27 65  1  0  0  0  0
M  END
> <PUBCHEM_COMPOUND_CID>
5372332

> <PUBCHEM_CONFORMER_RMSD>
1.8

> <PUBCHEM_CONFORMER_DIVERSEORDER>
2
140
60
61
94
83
43
76
26
3
27
131
59
155
39
84
33
90
89
73
35
115
138
47
130
12
148
125
123
132
14
146
87
20
152
28
153
24
30
36
77
41
99
31
119
109
11
141
133
34
118
95
5
91
101
124
114
127
98
1
150
86
66
79
81
107
50
6
122
136
8
63
72
103
120
139
100
80
154
96
29
78
82
45
145
149
68
19
92
85
88
144
57
147
117
55
126
56
74
53
121
71
134
69
52
128
67
143
111
58
97
62
54
46
106
151
17
51
108
44
48
110
75
4
9
113
10
135
42
137
16
112
25
40
116
23
38
129
49
93
15
13
22
65
102
18
70
7
104
105
37
32
142
64
21

> <PUBCHEM_MMFF94_PARTIAL_CHARGES>
38
1 -0.79
10 -0.29
11 0.28
12 -0.29
13 -0.29
14 0.28
15 -0.29
16 0.28
17 -0.29
18 0.28
19 -0.29
2 -0.7
20 -0.29
21 0.28
22 -0.29
23 -0.29
24 -0.29
25 0.14
26 -0.29
3 0.37
39 0.15
4 0.44
40 0.15
43 0.15
44 0.15
47 0.15
5 0.25
50 0.15
53 0.15
54 0.15
57 0.15
58 0.15
59 0.15
6 0.06
62 0.15
7 0.14
8 0.37
9 -0.29

> <PUBCHEM_EFFECTIVE_ROTOR_COUNT>
14.6

> <PUBCHEM_PHARMACOPHORE_FEATURES>
3
1 27 hydrophobe
3 1 2 4 cation
5 1 2 3 4 5 rings

> <PUBCHEM_HEAVY_ATOM_COUNT>
27

> <PUBCHEM_ATOM_DEF_STEREO_COUNT>
0

> <PUBCHEM_ATOM_UDEF_STEREO_COUNT>
0

> <PUBCHEM_BOND_DEF_STEREO_COUNT>
6

> <PUBCHEM_BOND_UDEF_STEREO_COUNT>
0

> <PUBCHEM_ISOTOPIC_ATOM_COUNT>
0

> <PUBCHEM_COMPONENT_COUNT>
1

> <PUBCHEM_CACTVS_TAUTO_COUNT>
1

> <PUBCHEM_CONFORMER_ID>
0051F9AC00000002

> <PUBCHEM_MMFF94_ENERGY>
33.8054

> <PUBCHEM_FEATURE_SELFOVERLAP>
15.223

> <PUBCHEM_SHAPE_FINGERPRINT>
11112662 9 18412824677164403841
11244481 83 17180515988968989046
12156800 1 17899450680674206943
14251757 17 14260764261505751998
14251764 3 18270136629195241682
14840074 17 17894911828366493349
22121540 332 16082463688512924853
35225 105 18412538825684512454
469060 322 15285909359686143074

> <PUBCHEM_SHAPE_MULTIPOLES>
545.69
9.59
4.56
3.15
5
3.96
-0.89
-9.79
3.4
1.17
-0.66
-0.1
1.68
-0.27

> <PUBCHEM_SHAPE_SELFOVERLAP>
1057.387

> <PUBCHEM_SHAPE_VOLUME>
327.4

> <PUBCHEM_COORDINATE_TYPE>
2
5
10

$$$$
