6428384
  -OEChem-02172602423D

 40 41  0     1  0  0  0  0  0999 V2000
   -2.6590    2.3701    0.0667 O   0  0  0  0  0  0  0  0  0  0  0  0
   -0.8122    0.7762   -0.1640 C   0  0  1  0  0  0  0  0  0  0  0  0
    0.1870    1.8145    0.4233 C   0  0  0  0  0  0  0  0  0  0  0  0
    1.9772    0.0670    0.7397 C   0  0  1  0  0  0  0  0  0  0  0  0
   -0.3954   -0.6590    0.1944 C   0  0  0  0  0  0  0  0  0  0  0  0
   -2.2160    1.0663    0.4379 C   0  0  2  0  0  0  0  0  0  0  0  0
    1.6399    1.4405    0.1497 C   0  0  0  0  0  0  0  0  0  0  0  0
    0.8623   -0.9387    0.5949 C   0  0  0  0  0  0  0  0  0  0  0  0
   -0.8306    0.9269   -1.7071 C   0  0  0  0  0  0  0  0  0  0  0  0
    3.2728   -0.4650    0.1250 C   0  0  0  0  0  0  0  0  0  0  0  0
   -3.2674    0.0421    0.0045 C   0  0  0  0  0  0  0  0  0  0  0  0
   -1.4425   -1.6918    0.1007 C   0  0  0  0  0  0  0  0  0  0  0  0
   -2.7432   -1.3594   -0.0067 C   0  0  0  0  0  0  0  0  0  0  0  0
    3.0700   -0.7870   -1.3529 C   0  0  0  0  0  0  0  0  0  0  0  0
    4.4041    0.5433    0.3067 C   0  0  0  0  0  0  0  0  0  0  0  0
   -1.0469   -3.1458    0.0872 C   0  0  0  0  0  0  0  0  0  0  0  0
    0.0490    1.8933    1.5106 H   0  0  0  0  0  0  0  0  0  0  0  0
   -0.0112    2.8139    0.0162 H   0  0  0  0  0  0  0  0  0  0  0  0
    2.1365    0.1944    1.8199 H   0  0  0  0  0  0  0  0  0  0  0  0
   -2.1511    1.0545    1.5342 H   0  0  0  0  0  0  0  0  0  0  0  0
    1.8176    1.5087   -0.9259 H   0  0  0  0  0  0  0  0  0  0  0  0
    2.2768    2.2061    0.6104 H   0  0  0  0  0  0  0  0  0  0  0  0
    1.1276   -1.9519    0.8878 H   0  0  0  0  0  0  0  0  0  0  0  0
    0.1212    0.6167   -2.1532 H   0  0  0  0  0  0  0  0  0  0  0  0
   -1.6063    0.3142   -2.1778 H   0  0  0  0  0  0  0  0  0  0  0  0
   -1.0048    1.9656   -2.0081 H   0  0  0  0  0  0  0  0  0  0  0  0
    3.5580   -1.3912    0.6418 H   0  0  0  0  0  0  0  0  0  0  0  0
   -3.6699    0.2817   -0.9872 H   0  0  0  0  0  0  0  0  0  0  0  0
   -4.1220    0.1059    0.6895 H   0  0  0  0  0  0  0  0  0  0  0  0
   -3.4925   -2.1416   -0.1042 H   0  0  0  0  0  0  0  0  0  0  0  0
    2.8880    0.0948   -1.9725 H   0  0  0  0  0  0  0  0  0  0  0  0
    3.9803   -1.2539   -1.7489 H   0  0  0  0  0  0  0  0  0  0  0  0
    2.2602   -1.5026   -1.5239 H   0  0  0  0  0  0  0  0  0  0  0  0
    4.2767    1.4390   -0.3098 H   0  0  0  0  0  0  0  0  0  0  0  0
    5.3583    0.0907    0.0138 H   0  0  0  0  0  0  0  0  0  0  0  0
    4.4963    0.8510    1.3537 H   0  0  0  0  0  0  0  0  0  0  0  0
   -2.8837    2.3629   -0.8786 H   0  0  0  0  0  0  0  0  0  0  0  0
   -0.6416   -3.4480    1.0587 H   0  0  0  0  0  0  0  0  0  0  0  0
   -0.2967   -3.3375   -0.6878 H   0  0  0  0  0  0  0  0  0  0  0  0
   -1.8985   -3.8023   -0.1245 H   0  0  0  0  0  0  0  0  0  0  0  0
  1  6  1  0  0  0  0
  1 37  1  0  0  0  0
  2  3  1  0  0  0  0
  2  5  1  0  0  0  0
  2  6  1  0  0  0  0
  2  9  1  0  0  0  0
  3  7  1  0  0  0  0
  3 17  1  0  0  0  0
  3 18  1  0  0  0  0
  4  7  1  0  0  0  0
  4  8  1  0  0  0  0
  4 10  1  0  0  0  0
  4 19  1  0  0  0  0
  5  8  2  0  0  0  0
  5 12  1  0  0  0  0
  6 11  1  0  0  0  0
  6 20  1  0  0  0  0
  7 21  1  0  0  0  0
  7 22  1  0  0  0  0
  8 23  1  0  0  0  0
  9 24  1  0  0  0  0
  9 25  1  0  0  0  0
  9 26  1  0  0  0  0
 10 14  1  0  0  0  0
 10 15  1  0  0  0  0
 10 27  1  0  0  0  0
 11 13  1  0  0  0  0
 11 28  1  0  0  0  0
 11 29  1  0  0  0  0
 12 13  2  0  0  0  0
 12 16  1  0  0  0  0
 13 30  1  0  0  0  0
 14 31  1  0  0  0  0
 14 32  1  0  0  0  0
 14 33  1  0  0  0  0
 15 34  1  0  0  0  0
 15 35  1  0  0  0  0
 15 36  1  0  0  0  0
 16 38  1  0  0  0  0
 16 39  1  0  0  0  0
 16 40  1  0  0  0  0
M  END
> <PUBCHEM_COMPOUND_CID>
6428384

> <PUBCHEM_CONFORMER_RMSD>
0.6

> <PUBCHEM_CONFORMER_DIVERSEORDER>
1
2
3

> <PUBCHEM_MMFF94_PARTIAL_CHARGES>
13
1 -0.68
11 0.14
12 -0.14
13 -0.29
16 0.14
2 0.14
23 0.15
30 0.15
37 0.4
4 0.14
5 -0.14
6 0.28
8 -0.29

> <PUBCHEM_EFFECTIVE_ROTOR_COUNT>
2

> <PUBCHEM_PHARMACOPHORE_FEATURES>
5
1 1 acceptor
1 1 donor
3 10 14 15 hydrophobe
6 2 3 4 5 7 8 rings
6 2 5 6 11 12 13 rings

> <PUBCHEM_HEAVY_ATOM_COUNT>
16

> <PUBCHEM_ATOM_DEF_STEREO_COUNT>
2

> <PUBCHEM_ATOM_UDEF_STEREO_COUNT>
1

> <PUBCHEM_BOND_DEF_STEREO_COUNT>
0

> <PUBCHEM_BOND_UDEF_STEREO_COUNT>
0

> <PUBCHEM_ISOTOPIC_ATOM_COUNT>
0

> <PUBCHEM_COMPONENT_COUNT>
1

> <PUBCHEM_CACTVS_TAUTO_COUNT>
1

> <PUBCHEM_CONFORMER_ID>
006216E000000001

> <PUBCHEM_MMFF94_ENERGY>
35.7446

> <PUBCHEM_FEATURE_SELFOVERLAP>
25.39

> <PUBCHEM_SHAPE_FINGERPRINT>
10608611 8 18343015627455385704
10967382 1 18338796693696225915
11132069 177 18408884040248639128
11322862 65 18339086999015213350
11578080 2 17316165264187272532
12173636 292 18338232648447302332
12403814 3 17458341922836683572
12423570 1 17461730489093385149
13024252 1 14707203306012457577
13140716 1 18120939670296187011
13214271 11 18201994452394433408
13221675 6 18408604777032522891
14115302 16 18335430066749494916
14614273 12 18041266691114874238
14993402 34 18334009493320502167
15001771 113 18119248617122610707
15219456 202 18131636664572710198
15309172 13 18337114445242816193
15375358 24 18201715159202827040
15775835 57 18113898217437605160
16752209 62 18337377293215408587
16945 1 18410009965988686555
17804303 29 18340491165584141329
18186145 218 18268995284876308900
20510252 161 18272371949346260041
20645476 183 18041296373844983310
20645477 70 16248834421969892607
20871999 31 18339656576545783932
21501502 16 18193560188607246852
22721475 48 18338799038769448882
22802520 49 18198347453375513442
2334 1 17760364791932851403
23402539 116 18341880918232878910
23419403 2 16391490442013357245
23526113 38 17774432772811694672
23557571 272 18343028813421397316
23559900 14 18270113668838823272
2748010 2 17977659037362952867
43471831 8 18263643966031749171
598444 67 18343028756985565671
6333449 129 18411133640880826226
69090 78 18272085015455462231
7364860 26 18054789760892974504
77492 1 17531249452543027170
81228 2 18262514926297812003
8809292 202 18264207083314659306
9709674 26 18272374200209796694

> <PUBCHEM_SHAPE_MULTIPOLES>
323.4
5.69
2.45
1.01
4.24
0.83
0.42
-0.12
-0.01
-1.74
-0.1
0.29
-0.09
0.29

> <PUBCHEM_SHAPE_SELFOVERLAP>
667.673

> <PUBCHEM_SHAPE_VOLUME>
184.8

> <PUBCHEM_COORDINATE_TYPE>
2
5
10

$$$$
