102213192
  -OEChem-02172602483D

 22 24  0     0  0  0  0  0  0999 V2000
    3.0892    0.1410   -0.0001 S   0  0  0  0  0  0  0  0  0  0  0  0
    2.3004    2.0808    0.0000 S   0  0  0  0  0  0  0  0  0  0  0  0
    3.7297   -0.1020    1.2744 O   0  0  0  0  0  0  0  0  0  0  0  0
    3.7293   -0.1018   -1.2751 O   0  0  0  0  0  0  0  0  0  0  0  0
   -3.8634   -0.2699   -1.0981 O   0  5  0  0  0  0  0  0  0  0  0  0
   -3.8638   -0.2709    1.0972 O   0  0  0  0  0  0  0  0  0  0  0  0
   -3.2981   -0.0616   -0.0002 N   0  3  0  0  0  0  0  0  0  0  0  0
    0.4302    0.1339   -0.0001 C   0  0  0  0  0  0  0  0  0  0  0  0
    1.5511   -0.6983   -0.0001 C   0  0  0  0  0  0  0  0  0  0  0  0
   -0.8545   -0.4346    0.0001 C   0  0  0  0  0  0  0  0  0  0  0  0
    0.6051    1.5251    0.0000 C   0  0  0  0  0  0  0  0  0  0  0  0
   -1.9612    0.4320    0.0003 C   0  0  0  0  0  0  0  0  0  0  0  0
    1.4583   -2.0799    0.0003 C   0  0  0  0  0  0  0  0  0  0  0  0
   -0.9614   -1.8393    0.0000 C   0  0  0  0  0  0  0  0  0  0  0  0
   -0.4966    2.3732    0.0005 C   0  0  0  0  0  0  0  0  0  0  0  0
   -1.7798    1.8215    0.0006 C   0  0  0  0  0  0  0  0  0  0  0  0
    0.1854   -2.6490    0.0002 C   0  0  0  0  0  0  0  0  0  0  0  0
    2.3417   -2.7090    0.0005 H   0  0  0  0  0  0  0  0  0  0  0  0
   -0.3755    3.4524    0.0006 H   0  0  0  0  0  0  0  0  0  0  0  0
   -1.9304   -2.3331    0.0000 H   0  0  0  0  0  0  0  0  0  0  0  0
   -2.6376    2.4910    0.0008 H   0  0  0  0  0  0  0  0  0  0  0  0
    0.0783   -3.7305    0.0004 H   0  0  0  0  0  0  0  0  0  0  0  0
  1  2  1  0  0  0  0
  1  3  2  0  0  0  0
  1  4  2  0  0  0  0
  1  9  1  0  0  0  0
  2 11  1  0  0  0  0
  5  7  1  0  0  0  0
  6  7  2  0  0  0  0
  7 12  1  0  0  0  0
  8  9  1  0  0  0  0
  8 10  1  0  0  0  0
  8 11  2  0  0  0  0
  9 13  2  0  0  0  0
 10 12  2  0  0  0  0
 10 14  1  0  0  0  0
 11 15  1  0  0  0  0
 12 16  1  0  0  0  0
 13 17  1  0  0  0  0
 13 18  1  0  0  0  0
 14 17  2  0  0  0  0
 14 20  1  0  0  0  0
 15 16  2  0  0  0  0
 15 19  1  0  0  0  0
 16 21  1  0  0  0  0
 17 22  1  0  0  0  0
M  CHG  2   5  -1   7   1
M  END
> <PUBCHEM_COMPOUND_CID>
102213192

> <PUBCHEM_CONFORMER_RMSD>
0.6

> <PUBCHEM_CONFORMER_DIVERSEORDER>
1

> <PUBCHEM_MMFF94_PARTIAL_CHARGES>
20
1 1.43
11 0.1
12 0.13
13 -0.15
14 -0.15
15 -0.15
16 -0.15
17 -0.15
18 0.15
19 0.15
2 -0.22
20 0.15
21 0.15
22 0.15
3 -0.65
4 -0.65
5 -0.52
6 -0.52
7 0.91
9 -0.01

> <PUBCHEM_EFFECTIVE_ROTOR_COUNT>
1.2

> <PUBCHEM_PHARMACOPHORE_FEATURES>
6
1 5 acceptor
1 5 anion
1 6 acceptor
5 1 2 8 9 11 rings
6 8 10 11 12 15 16 rings
6 8 9 10 13 14 17 rings

> <PUBCHEM_HEAVY_ATOM_COUNT>
17

> <PUBCHEM_ATOM_DEF_STEREO_COUNT>
0

> <PUBCHEM_ATOM_UDEF_STEREO_COUNT>
0

> <PUBCHEM_BOND_DEF_STEREO_COUNT>
0

> <PUBCHEM_BOND_UDEF_STEREO_COUNT>
0

> <PUBCHEM_ISOTOPIC_ATOM_COUNT>
0

> <PUBCHEM_COMPONENT_COUNT>
1

> <PUBCHEM_CACTVS_TAUTO_COUNT>
1

> <PUBCHEM_CONFORMER_ID>
0617A64800000001

> <PUBCHEM_MMFF94_ENERGY>
42.0619

> <PUBCHEM_FEATURE_SELFOVERLAP>
30.658

> <PUBCHEM_SHAPE_FINGERPRINT>
10967382 1 18410855485987636358
11132069 177 18271800246064586850
11206711 2 18337393738239243853
13140716 1 18266458895917943762
13172582 1 18410007766859806058
13221675 6 18411139134191554998
13380535 76 18411132558681358626
13538477 17 18114461266544714738
13583140 156 16951110893731648657
14178342 30 18124589782765574184
14251717 144 18412537734720569343
14614273 12 18044086865626252829
14787075 74 17773861168473103760
14790565 3 18266762275197163465
15309172 13 18411704287684797387
16945 1 18410573980983110374
18186145 218 18342459265612258285
193761 8 17906453225344107301
19591789 44 18265905837316941907
20028762 73 17985554596435797847
20510252 161 18272933795646391848
20588541 1 18410580590816609066
20645476 183 17532384234463434614
20905425 154 18053665780989110822
21501502 16 18121782720667582465
2334 1 17978508968214057986
23388829 49 18341044138618775229
23402539 116 18342161272402323998
23419403 2 15234602564994122816
23463225 33 18334853926756348072
23493267 7 17530681000683895289
23559900 14 18049153372431542074
2748010 2 18122347049374090518
352729 6 18338521957560366138
4072396 5 18190440719463286347
43471831 8 18264205820699801706
528886 8 18411415146080622058
589210 1 17833268618939471085
7364860 26 17838612263015700382
81228 2 17544751691376216731

> <PUBCHEM_SHAPE_MULTIPOLES>
329.09
5.66
2.61
0.85
1.24
0.23
0
-0.25
0
-0.36
0
-0.14
0.04
0

> <PUBCHEM_SHAPE_SELFOVERLAP>
712.843

> <PUBCHEM_SHAPE_VOLUME>
182.4

> <PUBCHEM_COORDINATE_TYPE>
2
5
10

$$$$
