177825802
  -OEChem-02172602583D

 40 42  0     1  0  0  0  0  0999 V2000
    1.5029   -0.8322   -1.9087 O   0  0  0  0  0  0  0  0  0  0  0  0
    3.8712    0.8282   -1.4391 O   0  0  0  0  0  0  0  0  0  0  0  0
    3.3249   -2.2192    1.9679 O   0  0  0  0  0  0  0  0  0  0  0  0
   -1.2058    4.4380    0.2274 O   0  0  0  0  0  0  0  0  0  0  0  0
   -3.7190    0.2536    0.9749 O   0  0  0  0  0  0  0  0  0  0  0  0
   -4.5740   -1.3311   -1.1422 O   0  0  0  0  0  0  0  0  0  0  0  0
    3.9153   -0.6643    0.3364 N   0  0  0  0  0  0  0  0  0  0  0  0
    1.8204   -0.2396   -0.6648 C   0  0  2  0  0  0  0  0  0  0  0  0
    1.7255   -1.2471    0.4471 C   0  0  0  0  0  0  0  0  0  0  0  0
    1.0208    0.9972   -0.4293 C   0  0  0  0  0  0  0  0  0  0  0  0
    3.3106    0.0664   -0.6617 C   0  0  0  0  0  0  0  0  0  0  0  0
    3.0629   -1.4694    1.0439 C   0  0  0  0  0  0  0  0  0  0  0  0
    0.6434   -1.9000    0.8821 C   0  0  0  0  0  0  0  0  0  0  0  0
    1.2846    1.7970    0.6826 C   0  0  0  0  0  0  0  0  0  0  0  0
    0.0086    1.3536   -1.3204 C   0  0  0  0  0  0  0  0  0  0  0  0
   -0.7243   -1.7488    0.3557 C   0  0  0  0  0  0  0  0  0  0  0  0
    0.5360    2.9531    0.9035 C   0  0  0  0  0  0  0  0  0  0  0  0
   -0.7398    2.5097   -1.0996 C   0  0  0  0  0  0  0  0  0  0  0  0
   -0.4761    3.3095    0.0124 C   0  0  0  0  0  0  0  0  0  0  0  0
   -1.5891   -0.8100    0.9178 C   0  0  0  0  0  0  0  0  0  0  0  0
   -1.1533   -2.5438   -0.7072 C   0  0  0  0  0  0  0  0  0  0  0  0
   -2.8830   -0.6660    0.4172 C   0  0  0  0  0  0  0  0  0  0  0  0
   -2.4473   -2.3998   -1.2078 C   0  0  0  0  0  0  0  0  0  0  0  0
   -3.3122   -1.4610   -0.6456 C   0  0  0  0  0  0  0  0  0  0  0  0
   -3.2031    1.0261    2.0575 C   0  0  0  0  0  0  0  0  0  0  0  0
    4.9107   -0.6169    0.5244 H   0  0  0  0  0  0  0  0  0  0  0  0
    0.7240   -2.6120    1.7004 H   0  0  0  0  0  0  0  0  0  0  0  0
    2.0651    1.5407    1.3938 H   0  0  0  0  0  0  0  0  0  0  0  0
   -0.2310    0.7545   -2.1940 H   0  0  0  0  0  0  0  0  0  0  0  0
    1.9173   -1.7110   -1.9537 H   0  0  0  0  0  0  0  0  0  0  0  0
    0.7452    3.5716    1.7721 H   0  0  0  0  0  0  0  0  0  0  0  0
   -1.5274    2.7753   -1.7997 H   0  0  0  0  0  0  0  0  0  0  0  0
   -1.2039   -0.2228    1.7454 H   0  0  0  0  0  0  0  0  0  0  0  0
   -0.4903   -3.2796   -1.1559 H   0  0  0  0  0  0  0  0  0  0  0  0
   -2.7685   -3.0256   -2.0362 H   0  0  0  0  0  0  0  0  0  0  0  0
   -1.8626    4.5288   -0.4843 H   0  0  0  0  0  0  0  0  0  0  0  0
   -4.6930   -1.9613   -1.8735 H   0  0  0  0  0  0  0  0  0  0  0  0
   -2.9614    0.3979    2.9216 H   0  0  0  0  0  0  0  0  0  0  0  0
   -2.3593    1.6486    1.7462 H   0  0  0  0  0  0  0  0  0  0  0  0
   -3.9994    1.7078    2.3741 H   0  0  0  0  0  0  0  0  0  0  0  0
  1  8  1  0  0  0  0
  1 30  1  0  0  0  0
  2 11  2  0  0  0  0
  3 12  2  0  0  0  0
  4 19  1  0  0  0  0
  4 36  1  0  0  0  0
  5 22  1  0  0  0  0
  5 25  1  0  0  0  0
  6 24  1  0  0  0  0
  6 37  1  0  0  0  0
  7 11  1  0  0  0  0
  7 12  1  0  0  0  0
  7 26  1  0  0  0  0
  8  9  1  0  0  0  0
  8 10  1  0  0  0  0
  8 11  1  0  0  0  0
  9 12  1  0  0  0  0
  9 13  2  0  0  0  0
 10 14  2  0  0  0  0
 10 15  1  0  0  0  0
 13 16  1  0  0  0  0
 13 27  1  0  0  0  0
 14 17  1  0  0  0  0
 14 28  1  0  0  0  0
 15 18  2  0  0  0  0
 15 29  1  0  0  0  0
 16 20  2  0  0  0  0
 16 21  1  0  0  0  0
 17 19  2  0  0  0  0
 17 31  1  0  0  0  0
 18 19  1  0  0  0  0
 18 32  1  0  0  0  0
 20 22  1  0  0  0  0
 20 33  1  0  0  0  0
 21 23  2  0  0  0  0
 21 34  1  0  0  0  0
 22 24  2  0  0  0  0
 23 24  1  0  0  0  0
 23 35  1  0  0  0  0
 25 38  1  0  0  0  0
 25 39  1  0  0  0  0
 25 40  1  0  0  0  0
M  END
> <PUBCHEM_COMPOUND_CID>
177825802

> <PUBCHEM_CONFORMER_RMSD>
0.6

> <PUBCHEM_CONFORMER_DIVERSEORDER>
1
5
4
3
2
6

> <PUBCHEM_MMFF94_PARTIAL_CHARGES>
37
1 -0.68
10 -0.14
11 0.57
12 0.62
13 -0.18
14 -0.15
15 -0.15
16 0.03
17 -0.15
18 -0.15
19 0.08
2 -0.57
20 -0.15
21 -0.15
22 0.08
23 -0.15
24 0.08
25 0.28
26 0.37
27 0.15
28 0.15
29 0.15
3 -0.57
30 0.4
31 0.15
32 0.15
33 0.15
34 0.15
35 0.15
36 0.45
37 0.45
4 -0.53
5 -0.36
6 -0.53
7 -0.49
8 0.62
9 -0.12

> <PUBCHEM_EFFECTIVE_ROTOR_COUNT>
3.4

> <PUBCHEM_PHARMACOPHORE_FEATURES>
11
1 1 acceptor
1 1 donor
1 2 acceptor
1 3 acceptor
1 4 donor
1 5 acceptor
1 6 donor
1 7 donor
5 7 8 9 11 12 rings
6 10 14 15 17 18 19 rings
6 16 20 21 22 23 24 rings

> <PUBCHEM_HEAVY_ATOM_COUNT>
25

> <PUBCHEM_ATOM_DEF_STEREO_COUNT>
1

> <PUBCHEM_ATOM_UDEF_STEREO_COUNT>
0

> <PUBCHEM_BOND_DEF_STEREO_COUNT>
1

> <PUBCHEM_BOND_UDEF_STEREO_COUNT>
0

> <PUBCHEM_ISOTOPIC_ATOM_COUNT>
0

> <PUBCHEM_COMPONENT_COUNT>
1

> <PUBCHEM_CACTVS_TAUTO_COUNT>
-1

> <PUBCHEM_CONFORMER_ID>
0A99680A00000001

> <PUBCHEM_MMFF94_ENERGY>
71.7469

> <PUBCHEM_FEATURE_SELFOVERLAP>
55.825

> <PUBCHEM_SHAPE_MULTIPOLES>
474.29
6.17
4.02
1.62
1.04
4.09
-0.15
-3.21
-0.15
0.85
-0.29
0.05
-0.2
-1.64

> <PUBCHEM_SHAPE_SELFOVERLAP>
1050.229

> <PUBCHEM_SHAPE_VOLUME>
253.8

> <PUBCHEM_COORDINATE_TYPE>
2
5
10

$$$$
