49800176
  -OEChem-02172602313D

 59 62  0     1  0  0  0  0  0999 V2000
   -3.5601    0.0938    0.7804 O   0  0  0  0  0  0  0  0  0  0  0  0
   -2.8685   -0.5341   -1.3588 O   0  0  0  0  0  0  0  0  0  0  0  0
   -6.8446   -2.3663    0.5648 O   0  0  0  0  0  0  0  0  0  0  0  0
   -6.7586   -0.2884    2.5453 O   0  0  0  0  0  0  0  0  0  0  0  0
   -5.4907   -1.5381   -1.8741 O   0  0  0  0  0  0  0  0  0  0  0  0
   -3.1233    1.9397    2.7590 O   0  0  0  0  0  0  0  0  0  0  0  0
    1.7040    1.0063   -0.8414 O   0  0  0  0  0  0  0  0  0  0  0  0
   -1.6090    3.8451   -2.7147 O   0  0  0  0  0  0  0  0  0  0  0  0
   -0.9696   -2.0250   -0.3292 O   0  0  0  0  0  0  0  0  0  0  0  0
    5.8756    1.4256    2.2734 O   0  0  0  0  0  0  0  0  0  0  0  0
    6.4708   -2.2760   -0.7064 O   0  0  0  0  0  0  0  0  0  0  0  0
    7.5167   -0.4958    1.1399 O   0  0  0  0  0  0  0  0  0  0  0  0
   -6.1248   -1.1428    0.4034 C   0  0  1  0  0  0  0  0  0  0  0  0
   -5.6274   -0.6879    1.7756 C   0  0  1  0  0  0  0  0  0  0  0  0
   -4.9598   -1.3693   -0.5603 C   0  0  2  0  0  0  0  0  0  0  0  0
   -4.6386    0.4720    1.6377 C   0  0  1  0  0  0  0  0  0  0  0  0
   -3.9911   -0.1868   -0.5493 C   0  0  1  0  0  0  0  0  0  0  0  0
   -4.0292    0.8736    2.9774 C   0  0  0  0  0  0  0  0  0  0  0  0
   -1.8857    0.4099   -1.4801 C   0  0  0  0  0  0  0  0  0  0  0  0
   -0.5684    0.1810   -1.0759 C   0  0  0  0  0  0  0  0  0  0  0  0
   -2.2308    1.6445   -2.0313 C   0  0  0  0  0  0  0  0  0  0  0  0
    0.3966    1.1763   -1.2209 C   0  0  0  0  0  0  0  0  0  0  0  0
   -0.1744   -1.1094   -0.4901 C   0  0  0  0  0  0  0  0  0  0  0  0
   -1.2660    2.6425   -2.1767 C   0  0  0  0  0  0  0  0  0  0  0  0
    0.0486    2.4099   -1.7717 C   0  0  0  0  0  0  0  0  0  0  0  0
    2.0811   -0.2125   -0.2986 C   0  0  0  0  0  0  0  0  0  0  0  0
    1.2441   -1.2437   -0.1018 C   0  0  0  0  0  0  0  0  0  0  0  0
    3.5070   -0.2862    0.0781 C   0  0  0  0  0  0  0  0  0  0  0  0
    4.3305   -1.2549   -0.4954 C   0  0  0  0  0  0  0  0  0  0  0  0
    4.0304    0.6123    1.0080 C   0  0  0  0  0  0  0  0  0  0  0  0
    5.3771    0.5419    1.3644 C   0  0  0  0  0  0  0  0  0  0  0  0
    5.6773   -1.3252   -0.1390 C   0  0  0  0  0  0  0  0  0  0  0  0
    6.2005   -0.4269    0.7910 C   0  0  0  0  0  0  0  0  0  0  0  0
    6.4032    2.6495    1.7651 C   0  0  0  0  0  0  0  0  0  0  0  0
    5.8572   -3.1548   -1.6476 C   0  0  0  0  0  0  0  0  0  0  0  0
   -6.8398   -0.4219   -0.0108 H   0  0  0  0  0  0  0  0  0  0  0  0
   -5.1581   -1.5315    2.2963 H   0  0  0  0  0  0  0  0  0  0  0  0
   -4.4318   -2.2977   -0.3117 H   0  0  0  0  0  0  0  0  0  0  0  0
   -5.1290    1.3575    1.2108 H   0  0  0  0  0  0  0  0  0  0  0  0
   -4.4916    0.6938   -0.9721 H   0  0  0  0  0  0  0  0  0  0  0  0
   -3.4668    0.0419    3.4149 H   0  0  0  0  0  0  0  0  0  0  0  0
   -4.7977    1.2023    3.6836 H   0  0  0  0  0  0  0  0  0  0  0  0
   -6.2331   -3.0312    0.9247 H   0  0  0  0  0  0  0  0  0  0  0  0
   -7.1576    0.4861    2.1133 H   0  0  0  0  0  0  0  0  0  0  0  0
   -5.9402   -0.7134   -2.1259 H   0  0  0  0  0  0  0  0  0  0  0  0
   -2.7444    2.1760    3.6228 H   0  0  0  0  0  0  0  0  0  0  0  0
   -3.2449    1.8329   -2.3742 H   0  0  0  0  0  0  0  0  0  0  0  0
    0.7981    3.1889   -1.8860 H   0  0  0  0  0  0  0  0  0  0  0  0
    1.5598   -2.1839    0.3364 H   0  0  0  0  0  0  0  0  0  0  0  0
    3.8753   -1.9245   -1.2181 H   0  0  0  0  0  0  0  0  0  0  0  0
    3.3950    1.3694    1.4628 H   0  0  0  0  0  0  0  0  0  0  0  0
   -2.5559    3.8339   -2.9366 H   0  0  0  0  0  0  0  0  0  0  0  0
    7.9281   -1.2243    0.6431 H   0  0  0  0  0  0  0  0  0  0  0  0
    7.2387    2.4565    1.0847 H   0  0  0  0  0  0  0  0  0  0  0  0
    5.6227    3.2185    1.2500 H   0  0  0  0  0  0  0  0  0  0  0  0
    6.7687    3.2415    2.6086 H   0  0  0  0  0  0  0  0  0  0  0  0
    5.0760   -3.7650   -1.1814 H   0  0  0  0  0  0  0  0  0  0  0  0
    5.4961   -2.6143   -2.5292 H   0  0  0  0  0  0  0  0  0  0  0  0
    6.6327   -3.8453   -1.9955 H   0  0  0  0  0  0  0  0  0  0  0  0
  1 16  1  0  0  0  0
  1 17  1  0  0  0  0
  2 17  1  0  0  0  0
  2 19  1  0  0  0  0
  3 13  1  0  0  0  0
  3 43  1  0  0  0  0
  4 14  1  0  0  0  0
  4 44  1  0  0  0  0
  5 15  1  0  0  0  0
  5 45  1  0  0  0  0
  6 18  1  0  0  0  0
  6 46  1  0  0  0  0
  7 22  1  0  0  0  0
  7 26  1  0  0  0  0
  8 24  1  0  0  0  0
  8 52  1  0  0  0  0
  9 23  2  0  0  0  0
 10 31  1  0  0  0  0
 10 34  1  0  0  0  0
 11 32  1  0  0  0  0
 11 35  1  0  0  0  0
 12 33  1  0  0  0  0
 12 53  1  0  0  0  0
 13 14  1  0  0  0  0
 13 15  1  0  0  0  0
 13 36  1  0  0  0  0
 14 16  1  0  0  0  0
 14 37  1  0  0  0  0
 15 17  1  0  0  0  0
 15 38  1  0  0  0  0
 16 18  1  0  0  0  0
 16 39  1  0  0  0  0
 17 40  1  0  0  0  0
 18 41  1  0  0  0  0
 18 42  1  0  0  0  0
 19 20  1  0  0  0  0
 19 21  2  0  0  0  0
 20 22  2  0  0  0  0
 20 23  1  0  0  0  0
 21 24  1  0  0  0  0
 21 47  1  0  0  0  0
 22 25  1  0  0  0  0
 23 27  1  0  0  0  0
 24 25  2  0  0  0  0
 25 48  1  0  0  0  0
 26 27  2  0  0  0  0
 26 28  1  0  0  0  0
 27 49  1  0  0  0  0
 28 29  2  0  0  0  0
 28 30  1  0  0  0  0
 29 32  1  0  0  0  0
 29 50  1  0  0  0  0
 30 31  2  0  0  0  0
 30 51  1  0  0  0  0
 31 33  1  0  0  0  0
 32 33  2  0  0  0  0
 34 54  1  0  0  0  0
 34 55  1  0  0  0  0
 34 56  1  0  0  0  0
 35 57  1  0  0  0  0
 35 58  1  0  0  0  0
 35 59  1  0  0  0  0
M  END
> <PUBCHEM_COMPOUND_CID>
49800176

> <PUBCHEM_CONFORMER_RMSD>
1

> <PUBCHEM_CONFORMER_DIVERSEORDER>
1
36
21
38
29
37
5
17
31
20
33
11
14
15
27
7
12
22
8
2
32
28
9
6
19
25
24
26
30
23
10
4
35
16
13
18
34
3

> <PUBCHEM_MMFF94_PARTIAL_CHARGES>
46
1 -0.56
10 -0.36
11 -0.36
12 -0.53
13 0.28
14 0.28
15 0.28
16 0.28
17 0.56
18 0.28
19 0.08
2 -0.36
20 0.09
21 -0.15
22 0.08
23 0.47
24 0.08
25 -0.15
26 0.05
27 -0.14
28 0.03
29 -0.15
3 -0.68
30 -0.15
31 0.08
32 0.08
33 0.08
34 0.28
35 0.28
4 -0.68
43 0.4
44 0.4
45 0.4
46 0.4
47 0.15
48 0.15
49 0.15
5 -0.68
50 0.15
51 0.15
52 0.45
53 0.45
6 -0.68
7 -0.16
8 -0.53
9 -0.57

> <PUBCHEM_EFFECTIVE_ROTOR_COUNT>
7.2

> <PUBCHEM_PHARMACOPHORE_FEATURES>
20
1 1 acceptor
1 10 acceptor
1 11 acceptor
1 12 donor
1 2 acceptor
1 3 acceptor
1 3 donor
1 4 acceptor
1 4 donor
1 5 acceptor
1 5 donor
1 6 acceptor
1 6 donor
1 7 acceptor
1 8 donor
1 9 acceptor
6 1 13 14 15 16 17 rings
6 19 20 21 22 24 25 rings
6 28 29 30 31 32 33 rings
6 7 20 22 23 26 27 rings

> <PUBCHEM_HEAVY_ATOM_COUNT>
35

> <PUBCHEM_ATOM_DEF_STEREO_COUNT>
5

> <PUBCHEM_ATOM_UDEF_STEREO_COUNT>
0

> <PUBCHEM_BOND_DEF_STEREO_COUNT>
0

> <PUBCHEM_BOND_UDEF_STEREO_COUNT>
0

> <PUBCHEM_ISOTOPIC_ATOM_COUNT>
0

> <PUBCHEM_COMPONENT_COUNT>
1

> <PUBCHEM_CACTVS_TAUTO_COUNT>
24

> <PUBCHEM_CONFORMER_ID>
02F7E3F000000001

> <PUBCHEM_MMFF94_ENERGY>
133.2291

> <PUBCHEM_FEATURE_SELFOVERLAP>
101.612

> <PUBCHEM_SHAPE_FINGERPRINT>
10076449 9 18338808827954971894
10369192 42 13326580678977707329
11991303 11 13901905660838628013
12120059 20 17678471980738419714
12422481 6 18411427171825663885
12596602 18 18202283606445648355
12760667 363 17240202132038390953
13540713 4 18119803608649612174
13782708 43 18190741934695966262
14068700 675 16370731447716763909
14340393 91 13045931408939228966
14849402 71 17702098269115619096
14856354 85 16558175142016173087
15131766 46 16915363628178390920
15183329 4 14908170954752833736
15301273 46 18409730630106142815
15876981 60 17274534447446459501
17686467 74 17240758498435039892
21756936 100 16128647561587087479
22122407 14 16845011350551619730
2303208 19 18337670811539101390
23559900 14 14852175108557800551
23569943 247 18195243309093044650
23845131 108 17617939127948763661
2747138 104 18040997349663231360
2838139 119 15195279790125836097
3383291 50 17603864541963380435
3663271 9 17632856451342000058
4058900 60 13182201603505020949
439807 62 14418140634250723801
469060 322 18186807937235028137
5104073 3 18117823431468643240
5265222 85 14273747278243957475
57527295 17 16951660590466086191
70634741 139 14274038639839536562

> <PUBCHEM_SHAPE_MULTIPOLES>
649.85
19.43
2.93
2.72
9.99
1.27
1.07
-9.39
11.35
1.37
-1.84
-2.5
1.91
2.98

> <PUBCHEM_SHAPE_SELFOVERLAP>
1415.68

> <PUBCHEM_SHAPE_VOLUME>
350.8

> <PUBCHEM_COORDINATE_TYPE>
2
5
10

$$$$
