17840571
  -OEChem-02172602313D

 30 32  0     0  0  0  0  0  0999 V2000
    0.2795   -1.0486    0.0808 O   0  0  0  0  0  0  0  0  0  0  0  0
    1.3166    2.4757   -0.2218 O   0  0  0  0  0  0  0  0  0  0  0  0
   -3.8169    1.5250   -0.1100 O   0  0  0  0  0  0  0  0  0  0  0  0
   -1.4608    2.6242   -0.2142 O   0  0  0  0  0  0  0  0  0  0  0  0
   -5.2366   -0.8081    0.0810 O   0  0  0  0  0  0  0  0  0  0  0  0
   -1.7424    0.2909   -0.0184 C   0  0  0  0  0  0  0  0  0  0  0  0
   -1.0867   -0.9345    0.0771 C   0  0  0  0  0  0  0  0  0  0  0  0
    1.0397    0.1072   -0.0023 C   0  0  0  0  0  0  0  0  0  0  0  0
   -0.9411    1.5202   -0.1211 C   0  0  0  0  0  0  0  0  0  0  0  0
    0.5318    1.3487   -0.1080 C   0  0  0  0  0  0  0  0  0  0  0  0
    2.4895   -0.1562    0.0116 C   0  0  0  0  0  0  0  0  0  0  0  0
   -3.1384    0.3460   -0.0181 C   0  0  0  0  0  0  0  0  0  0  0  0
   -1.8243   -2.1149    0.1732 C   0  0  0  0  0  0  0  0  0  0  0  0
   -3.8739   -0.8359    0.0787 C   0  0  0  0  0  0  0  0  0  0  0  0
   -3.2184   -2.0640    0.1742 C   0  0  0  0  0  0  0  0  0  0  0  0
    3.2904    0.4025    1.0078 C   0  0  0  0  0  0  0  0  0  0  0  0
    3.0612   -0.9642   -0.9714 C   0  0  0  0  0  0  0  0  0  0  0  0
    4.6628    0.1535    1.0209 C   0  0  0  0  0  0  0  0  0  0  0  0
    4.4337   -1.2132   -0.9581 C   0  0  0  0  0  0  0  0  0  0  0  0
    5.2344   -0.6543    0.0381 C   0  0  0  0  0  0  0  0  0  0  0  0
   -1.3215   -3.0754    0.2477 H   0  0  0  0  0  0  0  0  0  0  0  0
   -3.7820   -2.9902    0.2498 H   0  0  0  0  0  0  0  0  0  0  0  0
    2.8635    1.0284    1.7878 H   0  0  0  0  0  0  0  0  0  0  0  0
    2.4521   -1.4055   -1.7566 H   0  0  0  0  0  0  0  0  0  0  0  0
    5.2861    0.5871    1.7974 H   0  0  0  0  0  0  0  0  0  0  0  0
    4.8792   -1.8418   -1.7236 H   0  0  0  0  0  0  0  0  0  0  0  0
    6.3029   -0.8484    0.0485 H   0  0  0  0  0  0  0  0  0  0  0  0
    0.7202    3.2413   -0.2901 H   0  0  0  0  0  0  0  0  0  0  0  0
   -3.2023    2.2722   -0.1648 H   0  0  0  0  0  0  0  0  0  0  0  0
   -5.5726   -1.7179    0.1547 H   0  0  0  0  0  0  0  0  0  0  0  0
  1  7  1  0  0  0  0
  1  8  1  0  0  0  0
  2 10  1  0  0  0  0
  2 28  1  0  0  0  0
  3 12  1  0  0  0  0
  3 29  1  0  0  0  0
  4  9  2  0  0  0  0
  5 14  1  0  0  0  0
  5 30  1  0  0  0  0
  6  7  2  0  0  0  0
  6  9  1  0  0  0  0
  6 12  1  0  0  0  0
  7 13  1  0  0  0  0
  8 10  2  0  0  0  0
  8 11  1  0  0  0  0
  9 10  1  0  0  0  0
 11 16  2  0  0  0  0
 11 17  1  0  0  0  0
 12 14  2  0  0  0  0
 13 15  2  0  0  0  0
 13 21  1  0  0  0  0
 14 15  1  0  0  0  0
 15 22  1  0  0  0  0
 16 18  1  0  0  0  0
 16 23  1  0  0  0  0
 17 19  2  0  0  0  0
 17 24  1  0  0  0  0
 18 20  2  0  0  0  0
 18 25  1  0  0  0  0
 19 20  1  0  0  0  0
 19 26  1  0  0  0  0
 20 27  1  0  0  0  0
M  END
> <PUBCHEM_COMPOUND_CID>
17840571

> <PUBCHEM_CONFORMER_RMSD>
0.6

> <PUBCHEM_CONFORMER_DIVERSEORDER>
1
2

> <PUBCHEM_MMFF94_PARTIAL_CHARGES>
30
1 -0.16
10 0.09
11 0.03
12 0.08
13 -0.15
14 0.08
15 -0.15
16 -0.15
17 -0.15
18 -0.15
19 -0.15
2 -0.53
20 -0.15
21 0.15
22 0.15
23 0.15
24 0.15
25 0.15
26 0.15
27 0.15
28 0.45
29 0.45
3 -0.53
30 0.45
4 -0.57
5 -0.53
6 0.09
7 0.08
8 0.05
9 0.47

> <PUBCHEM_EFFECTIVE_ROTOR_COUNT>
1

> <PUBCHEM_PHARMACOPHORE_FEATURES>
8
1 1 acceptor
1 2 donor
1 3 donor
1 4 acceptor
1 5 donor
6 1 6 7 8 9 10 rings
6 11 16 17 18 19 20 rings
6 6 7 12 13 14 15 rings

> <PUBCHEM_HEAVY_ATOM_COUNT>
20

> <PUBCHEM_ATOM_DEF_STEREO_COUNT>
0

> <PUBCHEM_ATOM_UDEF_STEREO_COUNT>
0

> <PUBCHEM_BOND_DEF_STEREO_COUNT>
0

> <PUBCHEM_BOND_UDEF_STEREO_COUNT>
0

> <PUBCHEM_ISOTOPIC_ATOM_COUNT>
0

> <PUBCHEM_COMPONENT_COUNT>
1

> <PUBCHEM_CACTVS_TAUTO_COUNT>
20

> <PUBCHEM_CONFORMER_ID>
011039BB00000001

> <PUBCHEM_MMFF94_ENERGY>
61.2412

> <PUBCHEM_FEATURE_SELFOVERLAP>
40.63

> <PUBCHEM_SHAPE_FINGERPRINT>
10 15 18129645501398311562
10319926 262 18267844131205189042
10493431 412 18125449601169919657
11132069 177 18411138017436670033
12032990 46 18411422825334421615
12236239 1 17386006144463124322
12553582 1 18334286578566693587
13140716 1 18337114591445732113
13288520 33 18410294709261481535
13544592 145 18129670686195335454
13675066 3 18201997759039008706
13862211 1 18408880750504618139
14115302 16 17531534277436187526
14386348 63 18272653437487408046
14790565 3 17619073832712493385
14866123 147 17122280368926662946
15099037 51 18408884049281880327
15196674 1 18410293631203688588
15375358 24 18272930509927442054
15536298 74 18340205314099319352
15961568 22 18189333627915481276
16752209 62 18187357701575073131
16945 1 18408040684870975741
17357779 13 18339626906474080749
17492 89 18050850223573714055
17804303 29 18411138038953918937
1813 80 17749108906884240860
19141452 34 18059575832056075415
200 152 16988559087200147962
20028762 73 18199471150698441151
20510252 161 18271524191373858712
21033648 29 17560506348508425330
21065201 7 18337106766316167850
21267235 1 18336554888540652131
21279426 13 18194964041585923855
221490 88 18118693342085999322
2297311 6 18340497702962228846
23366157 5 17752204143902182956
23402539 116 18411973646337174567
23557571 272 18271250430770022860
23559900 14 18341051814205439782
23845131 108 17405725674801696105
2748010 2 18265047119025299045
3004659 81 18186524315212039022
335352 9 18409449207143709231
34934 24 18336539422094283387
4214541 1 18411982438325042360
43471831 8 18188768336260371643
474 4 16734126715756587492
5104073 3 18411982493996224200
59755656 215 18336542734078714127
7364860 26 18196936793248576104
81228 2 18336842891635394832
8809292 202 18334298703238303651
8863177 126 17461739569066232611
9709674 26 18193557989404740787

> <PUBCHEM_SHAPE_MULTIPOLES>
382.24
9.89
2.2
0.81
3.47
0.76
0.02
-3.32
0.52
-1.44
-0.19
0.8
-0.08
0.73

> <PUBCHEM_SHAPE_SELFOVERLAP>
857.471

> <PUBCHEM_SHAPE_VOLUME>
200.4

> <PUBCHEM_COORDINATE_TYPE>
2
5
10

$$$$
