5364240
  -OEChem-02172602383D

 32 31  0     1  0  0  0  0  0999 V2000
    0.2904   -0.7473    1.0000 O   0  0  0  0  0  0  0  0  0  0  0  0
    1.6789   -2.1099   -0.3961 O   0  0  0  0  0  0  0  0  0  0  0  0
   -1.0817    1.0612    0.1966 C   0  0  0  0  0  0  0  0  0  0  0  0
   -2.2993    0.1853   -0.1121 C   0  0  0  0  0  0  0  0  0  0  0  0
    0.2522    0.3155    0.0469 C   0  0  1  0  0  0  0  0  0  0  0  0
   -3.6281    0.9365    0.0036 C   0  0  0  0  0  0  0  0  0  0  0  0
    1.4418    1.1938    0.3093 C   0  0  0  0  0  0  0  0  0  0  0  0
   -4.8404    0.0785   -0.3236 C   0  0  0  0  0  0  0  0  0  0  0  0
    1.4819   -1.5209    0.8892 C   0  0  0  0  0  0  0  0  0  0  0  0
    2.4360    1.3827   -0.5708 C   0  0  0  0  0  0  0  0  0  0  0  0
    3.6190    2.2559   -0.3136 C   0  0  0  0  0  0  0  0  0  0  0  0
    0.6493   -3.0314   -0.7293 C   0  0  0  0  0  0  0  0  0  0  0  0
   -1.1796    1.4343    1.2247 H   0  0  0  0  0  0  0  0  0  0  0  0
   -1.0887    1.9352   -0.4669 H   0  0  0  0  0  0  0  0  0  0  0  0
   -2.3168   -0.6745    0.5685 H   0  0  0  0  0  0  0  0  0  0  0  0
   -2.2036   -0.2177   -1.1280 H   0  0  0  0  0  0  0  0  0  0  0  0
    0.2912   -0.1007   -0.9676 H   0  0  0  0  0  0  0  0  0  0  0  0
   -3.6161    1.8015   -0.6703 H   0  0  0  0  0  0  0  0  0  0  0  0
   -3.7357    1.3285    1.0220 H   0  0  0  0  0  0  0  0  0  0  0  0
    1.4840    1.6931    1.2748 H   0  0  0  0  0  0  0  0  0  0  0  0
   -4.7853   -0.2993   -1.3494 H   0  0  0  0  0  0  0  0  0  0  0  0
   -5.7593    0.6645   -0.2245 H   0  0  0  0  0  0  0  0  0  0  0  0
   -4.9065   -0.7778    0.3549 H   0  0  0  0  0  0  0  0  0  0  0  0
    2.3721   -0.9442    1.1596 H   0  0  0  0  0  0  0  0  0  0  0  0
    1.4181   -2.3227    1.6344 H   0  0  0  0  0  0  0  0  0  0  0  0
    2.4008    0.8839   -1.5357 H   0  0  0  0  0  0  0  0  0  0  0  0
    4.5381    1.6656   -0.3779 H   0  0  0  0  0  0  0  0  0  0  0  0
    3.5827    2.7238    0.6752 H   0  0  0  0  0  0  0  0  0  0  0  0
    3.6664    3.0498   -1.0652 H   0  0  0  0  0  0  0  0  0  0  0  0
    0.8792   -3.4610   -1.7081 H   0  0  0  0  0  0  0  0  0  0  0  0
    0.6086   -3.8425    0.0043 H   0  0  0  0  0  0  0  0  0  0  0  0
   -0.3222   -2.5329   -0.7921 H   0  0  0  0  0  0  0  0  0  0  0  0
  1  5  1  0  0  0  0
  1  9  1  0  0  0  0
  2  9  1  0  0  0  0
  2 12  1  0  0  0  0
  3  4  1  0  0  0  0
  3  5  1  0  0  0  0
  3 13  1  0  0  0  0
  3 14  1  0  0  0  0
  4  6  1  0  0  0  0
  4 15  1  0  0  0  0
  4 16  1  0  0  0  0
  5  7  1  0  0  0  0
  5 17  1  0  0  0  0
  6  8  1  0  0  0  0
  6 18  1  0  0  0  0
  6 19  1  0  0  0  0
  7 10  2  0  0  0  0
  7 20  1  0  0  0  0
  8 21  1  0  0  0  0
  8 22  1  0  0  0  0
  8 23  1  0  0  0  0
  9 24  1  0  0  0  0
  9 25  1  0  0  0  0
 10 11  1  0  0  0  0
 10 26  1  0  0  0  0
 11 27  1  0  0  0  0
 11 28  1  0  0  0  0
 11 29  1  0  0  0  0
 12 30  1  0  0  0  0
 12 31  1  0  0  0  0
 12 32  1  0  0  0  0
M  END
> <PUBCHEM_COMPOUND_CID>
5364240

> <PUBCHEM_CONFORMER_RMSD>
0.8

> <PUBCHEM_CONFORMER_DIVERSEORDER>
1
104
94
105
84
59
82
39
68
92
78
83
91
97
51
21
20
88
70
11
16
81
93
98
55
63
30
10
44
31
57
69
61
15
72
99
22
67
76
90
17
66
34
103
41
33
101
47
74
54
38
14
62
8
89
95
29
100
37
32
36
23
3
58
86
65
102
56
45
60
42
79
73
71
2
43
80
53
85
28
46
13
5
96
4
50
9
6
40
49
27
77
35
64
24
25
87
26
52
48
7
75
19
12
18

> <PUBCHEM_MMFF94_PARTIAL_CHARGES>
10
1 -0.56
10 -0.29
11 0.14
12 0.28
2 -0.56
20 0.15
26 0.15
5 0.42
7 -0.29
9 0.56

> <PUBCHEM_EFFECTIVE_ROTOR_COUNT>
7

> <PUBCHEM_PHARMACOPHORE_FEATURES>
4
1 1 acceptor
1 11 hydrophobe
1 2 acceptor
1 8 hydrophobe

> <PUBCHEM_HEAVY_ATOM_COUNT>
12

> <PUBCHEM_ATOM_DEF_STEREO_COUNT>
0

> <PUBCHEM_ATOM_UDEF_STEREO_COUNT>
1

> <PUBCHEM_BOND_DEF_STEREO_COUNT>
1

> <PUBCHEM_BOND_UDEF_STEREO_COUNT>
0

> <PUBCHEM_ISOTOPIC_ATOM_COUNT>
0

> <PUBCHEM_COMPONENT_COUNT>
1

> <PUBCHEM_CACTVS_TAUTO_COUNT>
1

> <PUBCHEM_CONFORMER_ID>
0051DA1000000001

> <PUBCHEM_MMFF94_ENERGY>
15.2302

> <PUBCHEM_FEATURE_SELFOVERLAP>
20.33

> <PUBCHEM_SHAPE_FINGERPRINT>
1 1 18408041814626657804
10922049 32 18336272356875171684
12138202 97 18052834816650053828
12346645 6 18409163298990719429
13380535 76 18261393385787783233
14251717 144 18411699855025288230
15502722 9 18410296882673046005
170605 34 18187081767269951497
20388580 30 17986116214378703318
20645477 70 18336819798281858047
20671657 53 18045780079167754651
20708731 107 18341894035004945882
20711985 344 17473253757715675786
20871998 22 17979911618739405667
21499 59 18335982085679130765
21524375 3 18188769573485038264
22218785 32 18336839683674717500
22713019 5 17407102731230888622
22713019 99 18341346521902432628
23402539 116 18198619020327376628
23530152 11 18340486771838229574
23598291 2 17844543114687952729
3060560 45 18336547204675419868
3071541 37 18334580143981739940
366044 4 18337391659886561296
528862 383 18336259067977202566
58051976 378 18187081801998863981
58734985 102 18197507216244236382
58734987 41 18410019861577473138
7364860 26 18340205189497658496
81228 2 17254829196909875224
81539 233 18260266369084071972

> <PUBCHEM_SHAPE_MULTIPOLES>
235.22
6.63
2.84
0.85
7.85
2.44
0.06
-4.14
-1.13
-2.92
-0.62
-0.22
0.24
-0.32

> <PUBCHEM_SHAPE_SELFOVERLAP>
426.655

> <PUBCHEM_SHAPE_VOLUME>
150.4

> <PUBCHEM_COORDINATE_TYPE>
2
5
10

$$$$
