19985548
  -OEChem-02172602583D

 44 43  0     0  0  0  0  0  0999 V2000
    4.9645   -0.0422   -0.0141 C   0  0  0  0  0  0  0  0  0  0  0  0
    3.5989    0.6928    0.0735 C   0  0  0  0  0  0  0  0  0  0  0  0
    2.3564   -0.2074    0.0522 C   0  0  0  0  0  0  0  0  0  0  0  0
    1.0405    0.5801    0.0751 C   0  0  0  0  0  0  0  0  0  0  0  0
   -0.2044   -0.3086    0.0223 C   0  0  0  0  0  0  0  0  0  0  0  0
   -1.4848    0.5312    0.0367 C   0  0  0  0  0  0  0  0  0  0  0  0
    5.1764   -0.9678    1.1949 C   0  0  0  0  0  0  0  0  0  0  0  0
    4.9649   -0.9011   -1.2943 C   0  0  0  0  0  0  0  0  0  0  0  0
    6.1315    0.9557   -0.0994 C   0  0  0  0  0  0  0  0  0  0  0  0
   -2.7304   -0.3574    0.0218 C   0  0  0  0  0  0  0  0  0  0  0  0
   -4.0428    0.4324    0.0126 C   0  0  0  0  0  0  0  0  0  0  0  0
   -5.3260   -0.4040    0.0203 C   0  0  0  0  0  0  0  0  0  0  0  0
   -6.6009    0.4367   -0.0523 C   0  0  0  0  0  0  0  0  0  0  0  0
   -7.8439   -0.4403   -0.0492 C   0  0  0  0  0  0  0  0  0  0  0  0
    3.5792    1.2981    0.9894 H   0  0  0  0  0  0  0  0  0  0  0  0
    3.5255    1.4040   -0.7604 H   0  0  0  0  0  0  0  0  0  0  0  0
    2.3714   -0.8854    0.9125 H   0  0  0  0  0  0  0  0  0  0  0  0
    2.3516   -0.8283   -0.8493 H   0  0  0  0  0  0  0  0  0  0  0  0
    1.0089    1.1948    0.9833 H   0  0  0  0  0  0  0  0  0  0  0  0
    1.0242    1.2721   -0.7761 H   0  0  0  0  0  0  0  0  0  0  0  0
   -0.1777   -0.9250   -0.8842 H   0  0  0  0  0  0  0  0  0  0  0  0
   -0.2004   -0.9923    0.8796 H   0  0  0  0  0  0  0  0  0  0  0  0
   -1.5010    1.1664    0.9305 H   0  0  0  0  0  0  0  0  0  0  0  0
   -1.4984    1.1971   -0.8345 H   0  0  0  0  0  0  0  0  0  0  0  0
   -2.7023   -1.0085   -0.8607 H   0  0  0  0  0  0  0  0  0  0  0  0
   -2.7173   -1.0146    0.9001 H   0  0  0  0  0  0  0  0  0  0  0  0
    5.1188   -0.4047    2.1330 H   0  0  0  0  0  0  0  0  0  0  0  0
    4.4313   -1.7687    1.2366 H   0  0  0  0  0  0  0  0  0  0  0  0
    6.1617   -1.4467    1.1552 H   0  0  0  0  0  0  0  0  0  0  0  0
    4.6974   -0.3057   -2.1745 H   0  0  0  0  0  0  0  0  0  0  0  0
    5.9601   -1.3244   -1.4762 H   0  0  0  0  0  0  0  0  0  0  0  0
    4.2756   -1.7490   -1.2294 H   0  0  0  0  0  0  0  0  0  0  0  0
    6.0289    1.6086   -0.9733 H   0  0  0  0  0  0  0  0  0  0  0  0
    6.1645    1.5934    0.7910 H   0  0  0  0  0  0  0  0  0  0  0  0
    7.0954    0.4406   -0.1779 H   0  0  0  0  0  0  0  0  0  0  0  0
   -4.0519    1.0799   -0.8736 H   0  0  0  0  0  0  0  0  0  0  0  0
   -4.0572    1.1011    0.8827 H   0  0  0  0  0  0  0  0  0  0  0  0
   -5.3020   -1.0974   -0.8296 H   0  0  0  0  0  0  0  0  0  0  0  0
   -5.3444   -1.0186    0.9287 H   0  0  0  0  0  0  0  0  0  0  0  0
   -6.6407    1.1243    0.8002 H   0  0  0  0  0  0  0  0  0  0  0  0
   -6.5919    1.0473   -0.9624 H   0  0  0  0  0  0  0  0  0  0  0  0
   -7.8974   -1.0418    0.8639 H   0  0  0  0  0  0  0  0  0  0  0  0
   -8.7446    0.1793   -0.1012 H   0  0  0  0  0  0  0  0  0  0  0  0
   -7.8479   -1.1183   -0.9087 H   0  0  0  0  0  0  0  0  0  0  0  0
  1  2  1  0  0  0  0
  1  7  1  0  0  0  0
  1  8  1  0  0  0  0
  1  9  1  0  0  0  0
  2  3  1  0  0  0  0
  2 15  1  0  0  0  0
  2 16  1  0  0  0  0
  3  4  1  0  0  0  0
  3 17  1  0  0  0  0
  3 18  1  0  0  0  0
  4  5  1  0  0  0  0
  4 19  1  0  0  0  0
  4 20  1  0  0  0  0
  5  6  1  0  0  0  0
  5 21  1  0  0  0  0
  5 22  1  0  0  0  0
  6 10  1  0  0  0  0
  6 23  1  0  0  0  0
  6 24  1  0  0  0  0
  7 27  1  0  0  0  0
  7 28  1  0  0  0  0
  7 29  1  0  0  0  0
  8 30  1  0  0  0  0
  8 31  1  0  0  0  0
  8 32  1  0  0  0  0
  9 33  1  0  0  0  0
  9 34  1  0  0  0  0
  9 35  1  0  0  0  0
 10 11  1  0  0  0  0
 10 25  1  0  0  0  0
 10 26  1  0  0  0  0
 11 12  1  0  0  0  0
 11 36  1  0  0  0  0
 11 37  1  0  0  0  0
 12 13  1  0  0  0  0
 12 38  1  0  0  0  0
 12 39  1  0  0  0  0
 13 14  1  0  0  0  0
 13 40  1  0  0  0  0
 13 41  1  0  0  0  0
 14 42  1  0  0  0  0
 14 43  1  0  0  0  0
 14 44  1  0  0  0  0
M  END
> <PUBCHEM_COMPOUND_CID>
19985548

> <PUBCHEM_CONFORMER_RMSD>
0.8

> <PUBCHEM_CONFORMER_DIVERSEORDER>
1
151
101
140
134
138
9
84
123
76
160
97
43
114
75
109
20
125
144
61
155
13
2
148
127
111
120
57
130
11
126
8
64
78
104
128
164
146
60
77
17
149
79
116
26
54
93
67
118
105
29
98
122
10
71
132
108
169
36
135
86
70
129
168
107
35
31
112
65
58
162
15
3
139
19
145
12
92
49
170
47
7
5
119
159
42
106
21
4
52
137
152
124
100
44
141
117
95
18
156
150
115
46
157
172
30
158
6
121
87
99
66
22
41
53
153
113
45
94
143
171
39
165
82
161
83
33
142
14
48
102
40
110
62
174
90
80
28
55
131
167
25
73
50
103
27
56
133
23
136
24
34
163
69
173
51
16
72
154
166
147
85
96
89
88
38
81
32
37
91
59
74
63
68

> <PUBCHEM_MMFF94_PARTIAL_CHARGES>
0

> <PUBCHEM_EFFECTIVE_ROTOR_COUNT>
9

> <PUBCHEM_PHARMACOPHORE_FEATURES>
2
1 14 hydrophobe
4 1 7 8 9 hydrophobe

> <PUBCHEM_HEAVY_ATOM_COUNT>
14

> <PUBCHEM_ATOM_DEF_STEREO_COUNT>
0

> <PUBCHEM_ATOM_UDEF_STEREO_COUNT>
0

> <PUBCHEM_BOND_DEF_STEREO_COUNT>
0

> <PUBCHEM_BOND_UDEF_STEREO_COUNT>
0

> <PUBCHEM_ISOTOPIC_ATOM_COUNT>
0

> <PUBCHEM_COMPONENT_COUNT>
1

> <PUBCHEM_CACTVS_TAUTO_COUNT>
1

> <PUBCHEM_CONFORMER_ID>
0130F48C00000001

> <PUBCHEM_MMFF94_ENERGY>
10.5733

> <PUBCHEM_FEATURE_SELFOVERLAP>
10.149

> <PUBCHEM_SHAPE_FINGERPRINT>
12091667 2 18335421271373741257
13533116 47 15984830290039690918
1420 363 18411984659086871911
14251764 18 18411138043818455585
14251764 46 18410573989451693211
17834076 25 16008748013649189953
20281389 69 17676203559485623677
20621476 8 15068614956022356615
20645477 70 17846224298585462246
23035841 295 18335137597009921251
23402539 116 18060132155206787685
23521765 1 18342176674476807017
33684 2 18410573985167288417
42788 4 18410573990010979321
4463277 17 18407759235753980029
59755656 520 17967809475501341107
8209 1 18409448094082573421

> <PUBCHEM_SHAPE_MULTIPOLES>
288.11
21.53
0.96
0.84
24.02
0.01
-0.03
1.34
-0.5
-0.82
0
-1.13
0.21
-0.04

> <PUBCHEM_SHAPE_SELFOVERLAP>
516.983

> <PUBCHEM_SHAPE_VOLUME>
189.2

> <PUBCHEM_COORDINATE_TYPE>
2
5
10

$$$$
