101037617
  -OEChem-02172602433D

 35 36  0     0  0  0  0  0  0999 V2000
   -1.9613   -2.3547   -0.4689 O   0  0  0  0  0  0  0  0  0  0  0  0
   -3.2142   -2.3219    0.1487 N   0  0  0  0  0  0  0  0  0  0  0  0
    1.8995    0.5178    0.1255 C   0  0  0  0  0  0  0  0  0  0  0  0
    1.8173   -1.0092    0.2541 C   0  0  0  0  0  0  0  0  0  0  0  0
    3.3153    1.0176    0.4436 C   0  0  0  0  0  0  0  0  0  0  0  0
    2.8708   -1.7048   -0.6050 C   0  0  0  0  0  0  0  0  0  0  0  0
    4.3661    0.3187   -0.4160 C   0  0  0  0  0  0  0  0  0  0  0  0
    4.2757   -1.1991   -0.2924 C   0  0  0  0  0  0  0  0  0  0  0  0
    0.8729    1.1917    1.0339 C   0  0  0  0  0  0  0  0  0  0  0  0
   -0.5075    1.1467    0.4388 C   0  0  0  0  0  0  0  0  0  0  0  0
   -1.3517    0.0710    0.7148 C   0  0  0  0  0  0  0  0  0  0  0  0
   -0.9439    2.1814   -0.3886 C   0  0  0  0  0  0  0  0  0  0  0  0
   -2.6323    0.0301    0.1635 C   0  0  0  0  0  0  0  0  0  0  0  0
   -2.2248    2.1406   -0.9398 C   0  0  0  0  0  0  0  0  0  0  0  0
   -3.0689    1.0649   -0.6639 C   0  0  0  0  0  0  0  0  0  0  0  0
   -3.5129   -1.0909    0.4517 C   0  0  0  0  0  0  0  0  0  0  0  0
    1.6903    0.7836   -0.9207 H   0  0  0  0  0  0  0  0  0  0  0  0
    0.8364   -1.3768   -0.0610 H   0  0  0  0  0  0  0  0  0  0  0  0
    1.9526   -1.3077    1.3014 H   0  0  0  0  0  0  0  0  0  0  0  0
    3.5418    0.8447    1.5035 H   0  0  0  0  0  0  0  0  0  0  0  0
    3.3780    2.0996    0.2770 H   0  0  0  0  0  0  0  0  0  0  0  0
    2.6485   -1.5329   -1.6655 H   0  0  0  0  0  0  0  0  0  0  0  0
    2.8242   -2.7873   -0.4407 H   0  0  0  0  0  0  0  0  0  0  0  0
    4.2305    0.6083   -1.4654 H   0  0  0  0  0  0  0  0  0  0  0  0
    5.3664    0.6535   -0.1193 H   0  0  0  0  0  0  0  0  0  0  0  0
    4.9964   -1.6683   -0.9715 H   0  0  0  0  0  0  0  0  0  0  0  0
    4.5532   -1.4993    0.7256 H   0  0  0  0  0  0  0  0  0  0  0  0
    1.1416    2.2446    1.1937 H   0  0  0  0  0  0  0  0  0  0  0  0
    0.8698    0.7403    2.0346 H   0  0  0  0  0  0  0  0  0  0  0  0
   -1.0180   -0.7199    1.3830 H   0  0  0  0  0  0  0  0  0  0  0  0
   -0.2952    3.0239   -0.6132 H   0  0  0  0  0  0  0  0  0  0  0  0
   -2.5645    2.9460   -1.5844 H   0  0  0  0  0  0  0  0  0  0  0  0
   -4.0646    1.0431   -1.0994 H   0  0  0  0  0  0  0  0  0  0  0  0
   -4.5021   -0.8733    0.8860 H   0  0  0  0  0  0  0  0  0  0  0  0
   -1.8518   -3.3056   -0.6386 H   0  0  0  0  0  0  0  0  0  0  0  0
  1  2  1  0  0  0  0
  1 35  1  0  0  0  0
  2 16  2  0  0  0  0
  3  4  1  0  0  0  0
  3  5  1  0  0  0  0
  3  9  1  0  0  0  0
  3 17  1  0  0  0  0
  4  6  1  0  0  0  0
  4 18  1  0  0  0  0
  4 19  1  0  0  0  0
  5  7  1  0  0  0  0
  5 20  1  0  0  0  0
  5 21  1  0  0  0  0
  6  8  1  0  0  0  0
  6 22  1  0  0  0  0
  6 23  1  0  0  0  0
  7  8  1  0  0  0  0
  7 24  1  0  0  0  0
  7 25  1  0  0  0  0
  8 26  1  0  0  0  0
  8 27  1  0  0  0  0
  9 10  1  0  0  0  0
  9 28  1  0  0  0  0
  9 29  1  0  0  0  0
 10 11  2  0  0  0  0
 10 12  1  0  0  0  0
 11 13  1  0  0  0  0
 11 30  1  0  0  0  0
 12 14  2  0  0  0  0
 12 31  1  0  0  0  0
 13 15  2  0  0  0  0
 13 16  1  0  0  0  0
 14 15  1  0  0  0  0
 14 32  1  0  0  0  0
 15 33  1  0  0  0  0
 16 34  1  0  0  0  0
M  END
> <PUBCHEM_COMPOUND_CID>
101037617

> <PUBCHEM_CONFORMER_RMSD>
0.6

> <PUBCHEM_CONFORMER_DIVERSEORDER>
1
58
52
59
67
5
60
70
76
55
51
17
68
18
73
19
48
61
69
80
49
20
57
62
81
8
56
47
38
79
82
25
37
26
2
24
27
53
29
28
54
30
22
23
21
7
6
35
36
72
71
50
3
34
4
32
31
77
33
46
74
75
45
43
39
41
40
9
12
64
78
65
63
42
15
14
66
11
10
44
13
16

> <PUBCHEM_MMFF94_PARTIAL_CHARGES>
16
1 -0.34
10 -0.14
11 -0.15
12 -0.15
13 0.09
14 -0.15
15 -0.15
16 0.3
2 -0.51
30 0.15
31 0.15
32 0.15
33 0.15
34 0.06
35 0.4
9 0.14

> <PUBCHEM_EFFECTIVE_ROTOR_COUNT>
4.2

> <PUBCHEM_PHARMACOPHORE_FEATURES>
4
1 1 anion
1 2 acceptor
6 10 11 12 13 14 15 rings
6 3 4 5 6 7 8 rings

> <PUBCHEM_HEAVY_ATOM_COUNT>
16

> <PUBCHEM_ATOM_DEF_STEREO_COUNT>
0

> <PUBCHEM_ATOM_UDEF_STEREO_COUNT>
0

> <PUBCHEM_BOND_DEF_STEREO_COUNT>
1

> <PUBCHEM_BOND_UDEF_STEREO_COUNT>
0

> <PUBCHEM_ISOTOPIC_ATOM_COUNT>
0

> <PUBCHEM_COMPONENT_COUNT>
1

> <PUBCHEM_CACTVS_TAUTO_COUNT>
58

> <PUBCHEM_CONFORMER_ID>
0605B63100000001

> <PUBCHEM_MMFF94_ENERGY>
38.9748

> <PUBCHEM_FEATURE_SELFOVERLAP>
20.297

> <PUBCHEM_SHAPE_FINGERPRINT>
10616163 171 18411140216660762526
10759866 29 18333736784747141342
11127187 94 18335419024262041213
11322862 65 18336261233231550693
11543360 7 18186810188246056980
11759241 127 17968381255453472468
12173636 292 18047746010174720605
12500047 106 18191017911359787428
12506688 2 18273217529622360552
13296908 3 18413106147756476512
14251745 187 18337951323984201946
17357779 13 18267283508633632743
17834074 16 18413107260158131368
18522851 268 18334296461502693620
19107657 46 18342740706466724326
19141452 34 18342744057063604131
200 152 17703218525519609012
20281475 54 18341900705205318304
20645476 183 16878227455177207217
20645477 70 17703781484316198948
20871999 31 18259980483640048493
21079973 296 18411694405075734656
21713013 43 18410580561083965814
221490 88 18411986866900580658
22213442 358 18336827588577417077
22959321 105 18408888421373841348
23402539 116 17676202477306650704
23557571 272 18333732424643055709
23559900 14 18268142060017065002
2748010 2 18338783615747617409
2871803 45 18335978744073170547
3268164 11 17313099752469336196
4921388 177 17385736784998351451
5104073 3 18412824655953260408
57210444 14 17976814294821694357
58051976 100 18335424517198048180
58051976 378 18411133645703561148
633830 44 16226341304851813972
83771 10 18340492261006510761
8809292 202 18410576171379761570
93112 12 18336263427675223020
9709674 26 18270399374046480046

> <PUBCHEM_SHAPE_MULTIPOLES>
318.42
7.81
2.48
0.9
4.96
0.68
-0.02
2.4
1.07
-1.72
0.4
-0.09
-0.19
0.88

> <PUBCHEM_SHAPE_SELFOVERLAP>
659.382

> <PUBCHEM_SHAPE_VOLUME>
180.5

> <PUBCHEM_COORDINATE_TYPE>
2
5
10

$$$$
