102264669
  -OEChem-02172602473D

 83 84  0     0  0  0  0  0  0999 V2000
   -3.5226    1.6405    0.4161 Si  0  0  0  0  0  0  0  0  0  0  0  0
   -0.2900   -4.7170   -2.1748 O   0  0  0  0  0  0  0  0  0  0  0  0
   -0.9477   -5.8920   -0.3017 O   0  0  0  0  0  0  0  0  0  0  0  0
   -5.0597    1.3990    1.4802 C   0  0  0  0  0  0  0  0  0  0  0  0
   -4.0593    1.7766   -1.3856 C   0  0  0  0  0  0  0  0  0  0  0  0
   -2.6975    3.2593    0.9176 C   0  0  0  0  0  0  0  0  0  0  0  0
   -5.5152   -0.0642    1.5520 C   0  0  0  0  0  0  0  0  0  0  0  0
   -6.2350    2.2837    1.0449 C   0  0  0  0  0  0  0  0  0  0  0  0
   -2.8926    2.0685   -2.3381 C   0  0  0  0  0  0  0  0  0  0  0  0
   -4.8290    0.5436   -1.8766 C   0  0  0  0  0  0  0  0  0  0  0  0
   -3.5957    4.4833    0.6970 C   0  0  0  0  0  0  0  0  0  0  0  0
   -2.1869    3.2490    2.3642 C   0  0  0  0  0  0  0  0  0  0  0  0
   -2.3516    0.2206    0.6377 C   0  0  0  0  0  0  0  0  0  0  0  0
   -1.6093   -0.7112    0.7884 C   0  0  0  0  0  0  0  0  0  0  0  0
   -0.7817   -1.8570    0.9966 C   0  0  0  0  0  0  0  0  0  0  0  0
   -1.4733   -3.1281    1.4561 C   0  0  0  0  0  0  0  0  0  0  0  0
    0.5539   -1.8555    0.8066 C   0  0  0  0  0  0  0  0  0  0  0  0
   -2.5663   -3.6428    0.5046 C   0  0  0  0  0  0  0  0  0  0  0  0
    1.4708   -0.7902    0.3820 C   0  0  0  0  0  0  0  0  0  0  0  0
   -2.0919   -3.8511   -0.9350 C   0  0  0  0  0  0  0  0  0  0  0  0
    2.8035   -0.5550    0.9823 C   0  0  0  0  0  0  0  0  0  0  0  0
    1.0502    0.0452   -0.5973 C   0  0  0  0  0  0  0  0  0  0  0  0
   -1.0546   -4.9429   -1.0673 C   0  0  0  0  0  0  0  0  0  0  0  0
    3.9323   -1.1659    0.4360 C   0  0  0  0  0  0  0  0  0  0  0  0
    2.9303    0.2765    2.0951 C   0  0  0  0  0  0  0  0  0  0  0  0
    1.7932    1.1824   -1.1590 C   0  0  0  0  0  0  0  0  0  0  0  0
    5.1878   -0.9451    1.0023 C   0  0  0  0  0  0  0  0  0  0  0  0
    4.1856    0.4973    2.6614 C   0  0  0  0  0  0  0  0  0  0  0  0
    5.3143   -0.1135    2.1150 C   0  0  0  0  0  0  0  0  0  0  0  0
    2.6514    0.9887   -2.2415 C   0  0  0  0  0  0  0  0  0  0  0  0
    1.6412    2.4551   -0.6087 C   0  0  0  0  0  0  0  0  0  0  0  0
    3.3573    2.0676   -2.7738 C   0  0  0  0  0  0  0  0  0  0  0  0
    2.3470    3.5341   -1.1409 C   0  0  0  0  0  0  0  0  0  0  0  0
    3.2050    3.3402   -2.2235 C   0  0  0  0  0  0  0  0  0  0  0  0
    6.6569    0.1229    2.7197 C   0  0  0  0  0  0  0  0  0  0  0  0
    0.7198   -5.6960   -2.4386 C   0  0  0  0  0  0  0  0  0  0  0  0
    3.9592    4.4937   -2.7934 C   0  0  0  0  0  0  0  0  0  0  0  0
   -4.7911    1.6946    2.5015 H   0  0  0  0  0  0  0  0  0  0  0  0
   -4.7460    2.6277   -1.4633 H   0  0  0  0  0  0  0  0  0  0  0  0
   -1.8216    3.3751    0.2669 H   0  0  0  0  0  0  0  0  0  0  0  0
   -6.3838   -0.1578    2.2145 H   0  0  0  0  0  0  0  0  0  0  0  0
   -4.7326   -0.7098    1.9662 H   0  0  0  0  0  0  0  0  0  0  0  0
   -5.8044   -0.4742    0.5815 H   0  0  0  0  0  0  0  0  0  0  0  0
   -7.0676    2.1669    1.7492 H   0  0  0  0  0  0  0  0  0  0  0  0
   -5.9968    3.3465    1.0221 H   0  0  0  0  0  0  0  0  0  0  0  0
   -6.6188    2.0100    0.0571 H   0  0  0  0  0  0  0  0  0  0  0  0
   -2.3720    2.9944   -2.0706 H   0  0  0  0  0  0  0  0  0  0  0  0
   -3.2539    2.1879   -3.3658 H   0  0  0  0  0  0  0  0  0  0  0  0
   -2.1556    1.2570   -2.3383 H   0  0  0  0  0  0  0  0  0  0  0  0
   -5.0488    0.6318   -2.9471 H   0  0  0  0  0  0  0  0  0  0  0  0
   -5.7940    0.4338   -1.3766 H   0  0  0  0  0  0  0  0  0  0  0  0
   -4.2598   -0.3822   -1.7349 H   0  0  0  0  0  0  0  0  0  0  0  0
   -2.9916    5.3962    0.7689 H   0  0  0  0  0  0  0  0  0  0  0  0
   -4.0713    4.4963   -0.2879 H   0  0  0  0  0  0  0  0  0  0  0  0
   -4.3670    4.5692    1.4680 H   0  0  0  0  0  0  0  0  0  0  0  0
   -3.0035    3.1553    3.0885 H   0  0  0  0  0  0  0  0  0  0  0  0
   -1.6549    4.1809    2.5871 H   0  0  0  0  0  0  0  0  0  0  0  0
   -1.4856    2.4254    2.5396 H   0  0  0  0  0  0  0  0  0  0  0  0
   -0.7427   -3.9295    1.6232 H   0  0  0  0  0  0  0  0  0  0  0  0
   -1.9292   -2.9395    2.4373 H   0  0  0  0  0  0  0  0  0  0  0  0
    1.0901   -2.7825    1.0176 H   0  0  0  0  0  0  0  0  0  0  0  0
   -3.4057   -2.9363    0.4963 H   0  0  0  0  0  0  0  0  0  0  0  0
   -2.9621   -4.5840    0.9059 H   0  0  0  0  0  0  0  0  0  0  0  0
   -1.6929   -2.9176   -1.3456 H   0  0  0  0  0  0  0  0  0  0  0  0
   -2.9457   -4.1436   -1.5570 H   0  0  0  0  0  0  0  0  0  0  0  0
    0.0999   -0.1081   -1.1035 H   0  0  0  0  0  0  0  0  0  0  0  0
    3.8495   -1.8181   -0.4301 H   0  0  0  0  0  0  0  0  0  0  0  0
    2.0596    0.7589    2.5329 H   0  0  0  0  0  0  0  0  0  0  0  0
    6.0595   -1.4279    0.5686 H   0  0  0  0  0  0  0  0  0  0  0  0
    4.2712    1.1459    3.5292 H   0  0  0  0  0  0  0  0  0  0  0  0
    2.7801    0.0027   -2.6815 H   0  0  0  0  0  0  0  0  0  0  0  0
    0.9750    2.6216    0.2346 H   0  0  0  0  0  0  0  0  0  0  0  0
    4.0241    1.9036   -3.6162 H   0  0  0  0  0  0  0  0  0  0  0  0
    2.2210    4.5205   -0.7025 H   0  0  0  0  0  0  0  0  0  0  0  0
    6.8604   -0.6292    3.4883 H   0  0  0  0  0  0  0  0  0  0  0  0
    7.4459    0.0729    1.9616 H   0  0  0  0  0  0  0  0  0  0  0  0
    6.7151    1.1166    3.1769 H   0  0  0  0  0  0  0  0  0  0  0  0
    1.2526   -5.3990   -3.3459 H   0  0  0  0  0  0  0  0  0  0  0  0
    0.2631   -6.6764   -2.6043 H   0  0  0  0  0  0  0  0  0  0  0  0
    1.4331   -5.7362   -1.6098 H   0  0  0  0  0  0  0  0  0  0  0  0
    4.9268    4.5942   -2.2919 H   0  0  0  0  0  0  0  0  0  0  0  0
    3.4022    5.4289   -2.6721 H   0  0  0  0  0  0  0  0  0  0  0  0
    4.1321    4.3611   -3.8669 H   0  0  0  0  0  0  0  0  0  0  0  0
  1  4  1  0  0  0  0
  1  5  1  0  0  0  0
  1  6  1  0  0  0  0
  1 13  1  0  0  0  0
  2 23  1  0  0  0  0
  2 36  1  0  0  0  0
  3 23  2  0  0  0  0
  4  7  1  0  0  0  0
  4  8  1  0  0  0  0
  4 38  1  0  0  0  0
  5  9  1  0  0  0  0
  5 10  1  0  0  0  0
  5 39  1  0  0  0  0
  6 11  1  0  0  0  0
  6 12  1  0  0  0  0
  6 40  1  0  0  0  0
  7 41  1  0  0  0  0
  7 42  1  0  0  0  0
  7 43  1  0  0  0  0
  8 44  1  0  0  0  0
  8 45  1  0  0  0  0
  8 46  1  0  0  0  0
  9 47  1  0  0  0  0
  9 48  1  0  0  0  0
  9 49  1  0  0  0  0
 10 50  1  0  0  0  0
 10 51  1  0  0  0  0
 10 52  1  0  0  0  0
 11 53  1  0  0  0  0
 11 54  1  0  0  0  0
 11 55  1  0  0  0  0
 12 56  1  0  0  0  0
 12 57  1  0  0  0  0
 12 58  1  0  0  0  0
 13 14  3  0  0  0  0
 14 15  1  0  0  0  0
 15 16  1  0  0  0  0
 15 17  2  0  0  0  0
 16 18  1  0  0  0  0
 16 59  1  0  0  0  0
 16 60  1  0  0  0  0
 17 19  1  0  0  0  0
 17 61  1  0  0  0  0
 18 20  1  0  0  0  0
 18 62  1  0  0  0  0
 18 63  1  0  0  0  0
 19 21  1  0  0  0  0
 19 22  2  0  0  0  0
 20 23  1  0  0  0  0
 20 64  1  0  0  0  0
 20 65  1  0  0  0  0
 21 24  2  0  0  0  0
 21 25  1  0  0  0  0
 22 26  1  0  0  0  0
 22 66  1  0  0  0  0
 24 27  1  0  0  0  0
 24 67  1  0  0  0  0
 25 28  2  0  0  0  0
 25 68  1  0  0  0  0
 26 30  2  0  0  0  0
 26 31  1  0  0  0  0
 27 29  2  0  0  0  0
 27 69  1  0  0  0  0
 28 29  1  0  0  0  0
 28 70  1  0  0  0  0
 29 35  1  0  0  0  0
 30 32  1  0  0  0  0
 30 71  1  0  0  0  0
 31 33  2  0  0  0  0
 31 72  1  0  0  0  0
 32 34  2  0  0  0  0
 32 73  1  0  0  0  0
 33 34  1  0  0  0  0
 33 74  1  0  0  0  0
 34 37  1  0  0  0  0
 35 75  1  0  0  0  0
 35 76  1  0  0  0  0
 35 77  1  0  0  0  0
 36 78  1  0  0  0  0
 36 79  1  0  0  0  0
 36 80  1  0  0  0  0
 37 81  1  0  0  0  0
 37 82  1  0  0  0  0
 37 83  1  0  0  0  0
M  END
> <PUBCHEM_COMPOUND_CID>
102264669

> <PUBCHEM_CONFORMER_RMSD>
1.2

> <PUBCHEM_CONFORMER_DIVERSEORDER>
2
10
15
30
12
14
38
9
20
32
33
4
40
39
22
17
21
25
24
31
28
29
13
34
27
1
23
3
36
8
16
6
26
11
35
18
5
37
19
7

> <PUBCHEM_MMFF94_PARTIAL_CHARGES>
40
1 0.54
13 -0.29
14 -0.06
15 -0.07
16 0.14
17 -0.15
19 -0.03
2 -0.43
20 0.06
21 0.03
22 -0.18
23 0.66
24 -0.15
25 -0.15
26 0.03
27 -0.15
28 -0.15
29 -0.14
3 -0.57
30 -0.15
31 -0.15
32 -0.15
33 -0.15
34 -0.14
35 0.14
36 0.28
37 0.14
4 -0.08
5 -0.08
6 -0.08
61 0.15
66 0.15
67 0.15
68 0.15
69 0.15
70 0.15
71 0.15
72 0.15
73 0.15
74 0.15

> <PUBCHEM_EFFECTIVE_ROTOR_COUNT>
11

> <PUBCHEM_PHARMACOPHORE_FEATURES>
7
1 3 acceptor
3 4 7 8 hydrophobe
3 5 9 10 hydrophobe
3 6 11 12 hydrophobe
5 14 15 16 18 20 hydrophobe
6 21 24 25 27 28 29 rings
6 26 30 31 32 33 34 rings

> <PUBCHEM_HEAVY_ATOM_COUNT>
37

> <PUBCHEM_ATOM_DEF_STEREO_COUNT>
0

> <PUBCHEM_ATOM_UDEF_STEREO_COUNT>
0

> <PUBCHEM_BOND_DEF_STEREO_COUNT>
2

> <PUBCHEM_BOND_UDEF_STEREO_COUNT>
0

> <PUBCHEM_ISOTOPIC_ATOM_COUNT>
0

> <PUBCHEM_COMPONENT_COUNT>
1

> <PUBCHEM_CACTVS_TAUTO_COUNT>
698

> <PUBCHEM_CONFORMER_ID>
06186F5D00000002

> <PUBCHEM_MMFF94_ENERGY>
80.5593

> <PUBCHEM_FEATURE_SELFOVERLAP>
35.523

> <PUBCHEM_SHAPE_FINGERPRINT>
10006869 2 17971212528038823299
10940486 97 18409731781579520606
11049842 53 18269574783402252846
11513181 2 17840854188382976543
11763715 3 17692234649730438818
12107698 1 16877944902095692209
12160290 23 18264776630638560139
12788726 201 18049170165658776019
13540713 5 18043531827055058746
14955137 171 17822577092968328888
15815584 197 17463963567192470307
18365409 1 18127102330086017583
20739085 24 17829616054275938322
21033648 29 18198605671284035424
2132832 1 17972019595127077698
25019877 29 18129927989054114086
5081480 168 17257657721069376589
5252454 2 18042983140604385165
5895379 119 18410302410601943424
6371009 1 18261108535421088593
6700243 42 17410242889284763142

> <PUBCHEM_SHAPE_MULTIPOLES>
767.92
11.99
7.69
3.17
0.98
10
0.79
-9.14
-6.65
-1.77
6.11
3.27
-1.23
-3.41

> <PUBCHEM_SHAPE_SELFOVERLAP>
1553.474

> <PUBCHEM_SHAPE_VOLUME>
451.1

> <PUBCHEM_COORDINATE_TYPE>
2
5
10

$$$$
