155353
  -OEChem-02172602463D

 51 52  0     0  0  0  0  0  0999 V2000
    3.1724   -1.1860    0.5386 O   0  0  0  0  0  0  0  0  0  0  0  0
    0.0650    2.5689    0.4478 O   0  0  0  0  0  0  0  0  0  0  0  0
    1.0297    0.4952   -0.1424 N   0  0  0  0  0  0  0  0  0  0  0  0
   -5.4083   -0.6659   -0.0425 C   0  0  0  0  0  0  0  0  0  0  0  0
   -3.9721   -0.1192    0.0081 C   0  0  0  0  0  0  0  0  0  0  0  0
   -5.4072   -2.1648    0.3284 C   0  0  0  0  0  0  0  0  0  0  0  0
   -6.0767   -0.5401   -1.4303 C   0  0  0  0  0  0  0  0  0  0  0  0
   -6.2932    0.1047    0.9611 C   0  0  0  0  0  0  0  0  0  0  0  0
   -3.2917   -0.1863    1.1981 C   0  0  0  0  0  0  0  0  0  0  0  0
   -3.4355    0.4101   -1.1387 C   0  0  0  0  0  0  0  0  0  0  0  0
   -1.4086    0.8542    0.0990 C   0  0  0  0  0  0  0  0  0  0  0  0
   -1.9884    0.3086    1.2443 C   0  0  0  0  0  0  0  0  0  0  0  0
   -2.1321    0.9049   -1.0926 C   0  0  0  0  0  0  0  0  0  0  0  0
   -0.0504    1.3721    0.1471 C   0  0  0  0  0  0  0  0  0  0  0  0
    2.3923    0.9918   -0.0956 C   0  0  0  0  0  0  0  0  0  0  0  0
    3.3959    0.1257    0.2419 C   0  0  0  0  0  0  0  0  0  0  0  0
    0.7774   -0.9125   -0.4892 C   0  0  0  0  0  0  0  0  0  0  0  0
    2.5914    2.3125   -0.3968 C   0  0  0  0  0  0  0  0  0  0  0  0
    4.2196   -2.1053    0.2365 C   0  0  0  0  0  0  0  0  0  0  0  0
    4.7007    0.6175    0.2817 C   0  0  0  0  0  0  0  0  0  0  0  0
    3.6061   -3.4544   -0.1053 C   0  0  0  0  0  0  0  0  0  0  0  0
    3.8962    2.8042   -0.3568 C   0  0  0  0  0  0  0  0  0  0  0  0
    4.9508    1.9567   -0.0176 C   0  0  0  0  0  0  0  0  0  0  0  0
    4.6666   -4.4925   -0.4249 C   0  0  0  0  0  0  0  0  0  0  0  0
   -4.7571   -2.7373   -0.3440 H   0  0  0  0  0  0  0  0  0  0  0  0
   -5.0596   -2.3422    1.3520 H   0  0  0  0  0  0  0  0  0  0  0  0
   -6.4155   -2.5894    0.2574 H   0  0  0  0  0  0  0  0  0  0  0  0
   -5.5345   -1.1023   -2.1997 H   0  0  0  0  0  0  0  0  0  0  0  0
   -7.0965   -0.9444   -1.4086 H   0  0  0  0  0  0  0  0  0  0  0  0
   -6.1621    0.5047   -1.7517 H   0  0  0  0  0  0  0  0  0  0  0  0
   -7.3337   -0.2376    0.9134 H   0  0  0  0  0  0  0  0  0  0  0  0
   -5.9629   -0.0273    1.9971 H   0  0  0  0  0  0  0  0  0  0  0  0
   -6.2869    1.1803    0.7480 H   0  0  0  0  0  0  0  0  0  0  0  0
   -3.7218   -0.6063    2.1008 H   0  0  0  0  0  0  0  0  0  0  0  0
   -3.9503    0.4744   -2.0887 H   0  0  0  0  0  0  0  0  0  0  0  0
   -1.4334    0.2639    2.1778 H   0  0  0  0  0  0  0  0  0  0  0  0
   -1.6893    1.3283   -1.9906 H   0  0  0  0  0  0  0  0  0  0  0  0
    1.5132   -1.2669   -1.2171 H   0  0  0  0  0  0  0  0  0  0  0  0
   -0.1955   -1.0385   -0.9687 H   0  0  0  0  0  0  0  0  0  0  0  0
    0.7755   -1.5155    0.4235 H   0  0  0  0  0  0  0  0  0  0  0  0
    1.8325    2.9929   -0.7606 H   0  0  0  0  0  0  0  0  0  0  0  0
    4.8750   -2.1983    1.1101 H   0  0  0  0  0  0  0  0  0  0  0  0
    4.8089   -1.7808   -0.6310 H   0  0  0  0  0  0  0  0  0  0  0  0
    5.5484    0.0034    0.5708 H   0  0  0  0  0  0  0  0  0  0  0  0
    2.9869   -3.7995    0.7314 H   0  0  0  0  0  0  0  0  0  0  0  0
    2.9262   -3.3465   -0.9585 H   0  0  0  0  0  0  0  0  0  0  0  0
    4.0947    3.8417   -0.6099 H   0  0  0  0  0  0  0  0  0  0  0  0
    5.9663    2.3407    0.0154 H   0  0  0  0  0  0  0  0  0  0  0  0
    5.3363   -4.6446    0.4276 H   0  0  0  0  0  0  0  0  0  0  0  0
    4.1980   -5.4523   -0.6636 H   0  0  0  0  0  0  0  0  0  0  0  0
    5.2696   -4.1861   -1.2856 H   0  0  0  0  0  0  0  0  0  0  0  0
  1 16  1  0  0  0  0
  1 19  1  0  0  0  0
  2 14  2  0  0  0  0
  3 14  1  0  0  0  0
  3 15  1  0  0  0  0
  3 17  1  0  0  0  0
  4  5  1  0  0  0  0
  4  6  1  0  0  0  0
  4  7  1  0  0  0  0
  4  8  1  0  0  0  0
  5  9  2  0  0  0  0
  5 10  1  0  0  0  0
  6 25  1  0  0  0  0
  6 26  1  0  0  0  0
  6 27  1  0  0  0  0
  7 28  1  0  0  0  0
  7 29  1  0  0  0  0
  7 30  1  0  0  0  0
  8 31  1  0  0  0  0
  8 32  1  0  0  0  0
  8 33  1  0  0  0  0
  9 12  1  0  0  0  0
  9 34  1  0  0  0  0
 10 13  2  0  0  0  0
 10 35  1  0  0  0  0
 11 12  2  0  0  0  0
 11 13  1  0  0  0  0
 11 14  1  0  0  0  0
 12 36  1  0  0  0  0
 13 37  1  0  0  0  0
 15 16  1  0  0  0  0
 15 18  2  0  0  0  0
 16 20  2  0  0  0  0
 17 38  1  0  0  0  0
 17 39  1  0  0  0  0
 17 40  1  0  0  0  0
 18 22  1  0  0  0  0
 18 41  1  0  0  0  0
 19 21  1  0  0  0  0
 19 42  1  0  0  0  0
 19 43  1  0  0  0  0
 20 23  1  0  0  0  0
 20 44  1  0  0  0  0
 21 24  1  0  0  0  0
 21 45  1  0  0  0  0
 21 46  1  0  0  0  0
 22 23  2  0  0  0  0
 22 47  1  0  0  0  0
 23 48  1  0  0  0  0
 24 49  1  0  0  0  0
 24 50  1  0  0  0  0
 24 51  1  0  0  0  0
M  END
> <PUBCHEM_COMPOUND_CID>
155353

> <PUBCHEM_CONFORMER_RMSD>
0.8

> <PUBCHEM_CONFORMER_DIVERSEORDER>
4
59
50
31
49
16
29
40
25
34
44
26
3
21
45
20
28
58
48
30
35
57
56
1
52
41
60
2
55
10
54
38
15
47
37
32
46
42
36
24
9
39
53
23
19
7
8
6
12
22
33
17
13
14
5
61
43
11
18
27
51

> <PUBCHEM_MMFF94_PARTIAL_CHARGES>
27
1 -0.36
10 -0.15
11 0.09
12 -0.15
13 -0.15
14 0.54
15 0.12
16 0.08
17 0.3
18 -0.15
19 0.28
2 -0.57
20 -0.15
22 -0.15
23 -0.15
3 -0.48
34 0.15
35 0.15
36 0.15
37 0.15
4 0.14
41 0.15
44 0.15
47 0.15
48 0.15
5 -0.14
9 -0.15

> <PUBCHEM_EFFECTIVE_ROTOR_COUNT>
7

> <PUBCHEM_PHARMACOPHORE_FEATURES>
6
1 1 acceptor
1 2 acceptor
1 24 hydrophobe
4 4 6 7 8 hydrophobe
6 15 16 18 20 22 23 rings
6 5 9 10 11 12 13 rings

> <PUBCHEM_HEAVY_ATOM_COUNT>
24

> <PUBCHEM_ATOM_DEF_STEREO_COUNT>
0

> <PUBCHEM_ATOM_UDEF_STEREO_COUNT>
0

> <PUBCHEM_BOND_DEF_STEREO_COUNT>
0

> <PUBCHEM_BOND_UDEF_STEREO_COUNT>
0

> <PUBCHEM_ISOTOPIC_ATOM_COUNT>
0

> <PUBCHEM_COMPONENT_COUNT>
1

> <PUBCHEM_CACTVS_TAUTO_COUNT>
1

> <PUBCHEM_CONFORMER_ID>
00025ED900000004

> <PUBCHEM_MMFF94_ENERGY>
106.6014

> <PUBCHEM_FEATURE_SELFOVERLAP>
30.446

> <PUBCHEM_SHAPE_FINGERPRINT>
10411042 1 18122345680081954478
10595046 47 18341051908436426225
11059845 2 16697252092983385242
114674 6 18114184103763038970
11719270 70 18337385037584827440
11796584 16 17749101210587799987
11963148 33 18265325278003414414
12107183 9 17910404887615176937
12236239 1 17632301215381872945
12596602 18 17274543238442570449
12788726 201 17417824941186554177
13009979 54 17701260227176353378
13140716 1 18126278886466667320
13533116 47 18343301457127845531
13785724 45 18055364530759840422
13911987 19 18046644553222359948
13955234 65 18341889719269611168
14251740 57 18271241625987417234
15250474 111 18201144568339829487
15537594 2 18131066077761242174
17492 89 18339641118879558822
17844677 252 18409733915619201573
17859628 70 18411420592658445886
19319366 153 18200306766554780900
200 152 18342739658906355681
20028762 73 18200589207451598006
20645477 70 18333728014117454432
21033650 10 16154553051885805741
21197605 99 18118971527223964682
21267235 1 18411422804682667388
21279426 13 18115300069557848277
21285901 2 17748818627172209260
220451 1 18201725089299149137
22224240 67 18270955873682105648
22393880 68 17750225916013828759
23402539 116 17023454365652229197
23424784 1240 18189066428919413379
23557571 272 17313095363218962469
23559900 14 18264199219313513906
23569914 152 17397790538254403287
239999 70 17894909655155103488
25222932 49 18127972116544785631
255183 451 18198630930630332966
3004659 81 18113896061543422688
312423 11 18270690757660597736
314194 84 18343016739899179971
3421961 26 18339078186485905826
345986 75 17632296752588976521
34797466 226 16732995244591028005
4073 2 18115313405257027947
46194498 28 17748828527298387708
5104073 3 18129942265261441504
5283173 99 17822278073140534517
5309563 4 18122907517338380270
59755656 215 18336270115292464638
6025842 7 18408886269853721468
70251023 43 18264491685222506650
7970288 3 18122343471999772630
9709674 26 18260552199294679946

> <PUBCHEM_SHAPE_MULTIPOLES>
477.19
14.87
3.66
1.03
12.9
3.97
-0.05
6.17
-0.29
-8.56
-0.44
1.3
-0.02
0.15

> <PUBCHEM_SHAPE_SELFOVERLAP>
1004.156

> <PUBCHEM_SHAPE_VOLUME>
270

> <PUBCHEM_COORDINATE_TYPE>
2
5
10

$$$$
