9831166
  -OEChem-02172602573D

 85 88  0     1  0  0  0  0  0999 V2000
    3.2834   -2.0033    0.2879 O   0  0  0  0  0  0  0  0  0  0  0  0
   -0.4708   -0.3410    0.3879 O   0  0  0  0  0  0  0  0  0  0  0  0
    4.5182   -2.9323   -1.5131 O   0  0  0  0  0  0  0  0  0  0  0  0
    2.8605    0.7657   -0.6256 O   0  0  0  0  0  0  0  0  0  0  0  0
    0.9732   -3.6323   -0.3163 O   0  0  0  0  0  0  0  0  0  0  0  0
    0.4037    1.8204    0.3016 O   0  0  0  0  0  0  0  0  0  0  0  0
    6.6937   -1.2377   -0.7032 O   0  0  0  0  0  0  0  0  0  0  0  0
    7.3587   -2.7942    1.5058 O   0  0  0  0  0  0  0  0  0  0  0  0
    6.3418   -5.3132    0.6304 O   0  0  0  0  0  0  0  0  0  0  0  0
   -2.8018   -1.7783    0.1507 O   0  0  0  0  0  0  0  0  0  0  0  0
    3.8233    1.4798    1.3492 O   0  0  0  0  0  0  0  0  0  0  0  0
   -4.0464   -3.3282    1.3283 O   0  0  0  0  0  0  0  0  0  0  0  0
    3.6920    5.3041    1.8361 O   0  0  0  0  0  0  0  0  0  0  0  0
    4.0939    6.8159   -0.4616 O   0  0  0  0  0  0  0  0  0  0  0  0
  -11.0443   -0.7614    1.1061 O   0  0  0  0  0  0  0  0  0  0  0  0
  -10.9568    0.9586   -1.0747 O   0  0  0  0  0  0  0  0  0  0  0  0
    2.0762   -1.4896   -0.2772 C   0  0  1  0  0  0  0  0  0  0  0  0
    0.9122   -2.3271    0.2528 C   0  0  1  0  0  0  0  0  0  0  0  0
    1.9198   -0.0184    0.1075 C   0  0  2  0  0  0  0  0  0  0  0  0
   -0.4285   -1.6813   -0.1048 C   0  0  1  0  0  0  0  0  0  0  0  0
    4.3847   -1.8388   -0.5987 C   0  0  2  0  0  0  0  0  0  0  0  0
    0.5159    0.4941   -0.2136 C   0  0  1  0  0  0  0  0  0  0  0  0
    5.6701   -1.6485    0.2046 C   0  0  1  0  0  0  0  0  0  0  0  0
    6.0788   -2.9496    0.8973 C   0  0  1  0  0  0  0  0  0  0  0  0
    6.1327   -4.1073   -0.1004 C   0  0  2  0  0  0  0  0  0  0  0  0
    4.8185   -4.1851   -0.8897 C   0  0  2  0  0  0  0  0  0  0  0  0
   -1.6014   -2.4357    0.5133 C   0  0  0  0  0  0  0  0  0  0  0  0
    4.8786   -5.2317   -1.9988 C   0  0  0  0  0  0  0  0  0  0  0  0
   -0.6541    2.5293   -0.3247 C   0  0  0  0  0  0  0  0  0  0  0  0
    3.7579    1.4666    0.1275 C   0  0  0  0  0  0  0  0  0  0  0  0
   -0.7335    3.9429    0.2412 C   0  0  0  0  0  0  0  0  0  0  0  0
    4.6770    2.2378   -0.7707 C   0  0  0  0  0  0  0  0  0  0  0  0
   -3.9572   -2.3324    0.6279 C   0  0  0  0  0  0  0  0  0  0  0  0
    0.5547    4.7079    0.0573 C   0  0  0  0  0  0  0  0  0  0  0  0
    1.5434    4.6561    1.0398 C   0  0  0  0  0  0  0  0  0  0  0  0
   -5.0944   -1.5153    0.1472 C   0  0  0  0  0  0  0  0  0  0  0  0
    0.7565    5.4666   -1.0958 C   0  0  0  0  0  0  0  0  0  0  0  0
    2.7339    5.3627    0.8695 C   0  0  0  0  0  0  0  0  0  0  0  0
    1.9468    6.1734   -1.2660 C   0  0  0  0  0  0  0  0  0  0  0  0
   -6.3451   -1.8606    0.4847 C   0  0  0  0  0  0  0  0  0  0  0  0
    2.9356    6.1214   -0.2835 C   0  0  0  0  0  0  0  0  0  0  0  0
   -7.5550   -1.1241    0.0784 C   0  0  0  0  0  0  0  0  0  0  0  0
   -8.7436   -1.2890    0.7894 C   0  0  0  0  0  0  0  0  0  0  0  0
   -7.5115   -0.2618   -1.0171 C   0  0  0  0  0  0  0  0  0  0  0  0
   -9.8889   -0.5914    0.4051 C   0  0  0  0  0  0  0  0  0  0  0  0
   -8.6569    0.4355   -1.4016 C   0  0  0  0  0  0  0  0  0  0  0  0
   -9.8455    0.2708   -0.6904 C   0  0  0  0  0  0  0  0  0  0  0  0
    2.1129   -1.5974   -1.3711 H   0  0  0  0  0  0  0  0  0  0  0  0
    1.0096   -2.4386    1.3396 H   0  0  0  0  0  0  0  0  0  0  0  0
    2.0778    0.0645    1.1911 H   0  0  0  0  0  0  0  0  0  0  0  0
   -0.5772   -1.6574   -1.1930 H   0  0  0  0  0  0  0  0  0  0  0  0
    4.2602   -0.9647   -1.2415 H   0  0  0  0  0  0  0  0  0  0  0  0
    0.3745    0.5154   -1.3034 H   0  0  0  0  0  0  0  0  0  0  0  0
    5.5607   -0.8586    0.9559 H   0  0  0  0  0  0  0  0  0  0  0  0
    5.3713   -3.1872    1.7016 H   0  0  0  0  0  0  0  0  0  0  0  0
    6.9884   -3.9792   -0.7738 H   0  0  0  0  0  0  0  0  0  0  0  0
    3.9900   -4.4606   -0.2243 H   0  0  0  0  0  0  0  0  0  0  0  0
   -1.5155   -2.4304    1.6069 H   0  0  0  0  0  0  0  0  0  0  0  0
   -1.6266   -3.4712    0.1555 H   0  0  0  0  0  0  0  0  0  0  0  0
    3.9355   -5.2505   -2.5559 H   0  0  0  0  0  0  0  0  0  0  0  0
    5.0649   -6.2324   -1.5978 H   0  0  0  0  0  0  0  0  0  0  0  0
    5.6658   -4.9902   -2.7214 H   0  0  0  0  0  0  0  0  0  0  0  0
    0.8817   -3.5450   -1.2804 H   0  0  0  0  0  0  0  0  0  0  0  0
    6.4328   -0.3774   -1.0727 H   0  0  0  0  0  0  0  0  0  0  0  0
    7.2981   -2.0489    2.1275 H   0  0  0  0  0  0  0  0  0  0  0  0
    5.5730   -5.4520    1.2094 H   0  0  0  0  0  0  0  0  0  0  0  0
   -1.6049    2.0138   -0.1466 H   0  0  0  0  0  0  0  0  0  0  0  0
   -0.4782    2.5743   -1.4066 H   0  0  0  0  0  0  0  0  0  0  0  0
   -0.9638    3.8966    1.3134 H   0  0  0  0  0  0  0  0  0  0  0  0
   -1.5616    4.4877   -0.2279 H   0  0  0  0  0  0  0  0  0  0  0  0
    4.1115    3.0060   -1.3037 H   0  0  0  0  0  0  0  0  0  0  0  0
    5.4497    2.7233   -0.1678 H   0  0  0  0  0  0  0  0  0  0  0  0
    5.1642    1.5622   -1.4775 H   0  0  0  0  0  0  0  0  0  0  0  0
    1.3863    4.0641    1.9383 H   0  0  0  0  0  0  0  0  0  0  0  0
   -4.8560   -0.6446   -0.4522 H   0  0  0  0  0  0  0  0  0  0  0  0
   -0.0058    5.5128   -1.8690 H   0  0  0  0  0  0  0  0  0  0  0  0
    2.0912    6.7600   -2.1693 H   0  0  0  0  0  0  0  0  0  0  0  0
   -6.5217   -2.7319    1.1112 H   0  0  0  0  0  0  0  0  0  0  0  0
    3.3814    4.7286    2.5560 H   0  0  0  0  0  0  0  0  0  0  0  0
    4.0564    7.2807   -1.3152 H   0  0  0  0  0  0  0  0  0  0  0  0
   -8.7814   -1.9598    1.6452 H   0  0  0  0  0  0  0  0  0  0  0  0
   -6.6146   -0.1174   -1.6121 H   0  0  0  0  0  0  0  0  0  0  0  0
   -8.6108    1.1011   -2.2596 H   0  0  0  0  0  0  0  0  0  0  0  0
  -10.8873   -1.3935    1.8285 H   0  0  0  0  0  0  0  0  0  0  0  0
  -10.7389    1.5050   -1.8493 H   0  0  0  0  0  0  0  0  0  0  0  0
  1 17  1  0  0  0  0
  1 21  1  0  0  0  0
  2 20  1  0  0  0  0
  2 22  1  0  0  0  0
  3 21  1  0  0  0  0
  3 26  1  0  0  0  0
  4 19  1  0  0  0  0
  4 30  1  0  0  0  0
  5 18  1  0  0  0  0
  5 63  1  0  0  0  0
  6 22  1  0  0  0  0
  6 29  1  0  0  0  0
  7 23  1  0  0  0  0
  7 64  1  0  0  0  0
  8 24  1  0  0  0  0
  8 65  1  0  0  0  0
  9 25  1  0  0  0  0
  9 66  1  0  0  0  0
 10 27  1  0  0  0  0
 10 33  1  0  0  0  0
 11 30  2  0  0  0  0
 12 33  2  0  0  0  0
 13 38  1  0  0  0  0
 13 79  1  0  0  0  0
 14 41  1  0  0  0  0
 14 80  1  0  0  0  0
 15 45  1  0  0  0  0
 15 84  1  0  0  0  0
 16 47  1  0  0  0  0
 16 85  1  0  0  0  0
 17 18  1  0  0  0  0
 17 19  1  0  0  0  0
 17 48  1  0  0  0  0
 18 20  1  0  0  0  0
 18 49  1  0  0  0  0
 19 22  1  0  0  0  0
 19 50  1  0  0  0  0
 20 27  1  0  0  0  0
 20 51  1  0  0  0  0
 21 23  1  0  0  0  0
 21 52  1  0  0  0  0
 22 53  1  0  0  0  0
 23 24  1  0  0  0  0
 23 54  1  0  0  0  0
 24 25  1  0  0  0  0
 24 55  1  0  0  0  0
 25 26  1  0  0  0  0
 25 56  1  0  0  0  0
 26 28  1  0  0  0  0
 26 57  1  0  0  0  0
 27 58  1  0  0  0  0
 27 59  1  0  0  0  0
 28 60  1  0  0  0  0
 28 61  1  0  0  0  0
 28 62  1  0  0  0  0
 29 31  1  0  0  0  0
 29 67  1  0  0  0  0
 29 68  1  0  0  0  0
 30 32  1  0  0  0  0
 31 34  1  0  0  0  0
 31 69  1  0  0  0  0
 31 70  1  0  0  0  0
 32 71  1  0  0  0  0
 32 72  1  0  0  0  0
 32 73  1  0  0  0  0
 33 36  1  0  0  0  0
 34 35  2  0  0  0  0
 34 37  1  0  0  0  0
 35 38  1  0  0  0  0
 35 74  1  0  0  0  0
 36 40  2  0  0  0  0
 36 75  1  0  0  0  0
 37 39  2  0  0  0  0
 37 76  1  0  0  0  0
 38 41  2  0  0  0  0
 39 41  1  0  0  0  0
 39 77  1  0  0  0  0
 40 42  1  0  0  0  0
 40 78  1  0  0  0  0
 42 43  2  0  0  0  0
 42 44  1  0  0  0  0
 43 45  1  0  0  0  0
 43 81  1  0  0  0  0
 44 46  2  0  0  0  0
 44 82  1  0  0  0  0
 45 47  2  0  0  0  0
 46 47  1  0  0  0  0
 46 83  1  0  0  0  0
M  END
> <PUBCHEM_COMPOUND_CID>
9831166

> <PUBCHEM_CONFORMER_RMSD>
1.4

> <PUBCHEM_CONFORMER_DIVERSEORDER>
1
35
7
12
15
28
64
14
53
33
9
69
30
41
20
47
52
60
3
63
57
34
65
27
18
49
23
19
74
39
11
70
40
43
21
42
76
31
50
32
44
16
56
75
68
26
46
25
59
36
29
62
73
4
72
55
51
5
61
45
58
48
71
2
54
17
13
10
66
67
6
22
8
37
24
38

> <PUBCHEM_MMFF94_PARTIAL_CHARGES>
62
1 -0.56
10 -0.43
11 -0.57
12 -0.57
13 -0.53
14 -0.53
15 -0.53
16 -0.53
17 0.28
18 0.28
19 0.28
2 -0.56
20 0.28
21 0.56
22 0.56
23 0.28
24 0.28
25 0.28
26 0.28
27 0.28
29 0.28
3 -0.56
30 0.66
31 0.14
32 0.06
33 0.71
34 -0.14
35 -0.15
36 -0.14
37 -0.15
38 0.08
39 -0.15
4 -0.43
40 -0.18
41 0.08
42 0.03
43 -0.15
44 -0.15
45 0.08
46 -0.15
47 0.08
5 -0.68
6 -0.56
63 0.4
64 0.4
65 0.4
66 0.4
7 -0.68
74 0.15
75 0.15
76 0.15
77 0.15
78 0.15
79 0.45
8 -0.68
80 0.45
81 0.15
82 0.15
83 0.15
84 0.45
85 0.45
9 -0.68

> <PUBCHEM_EFFECTIVE_ROTOR_COUNT>
15.4

> <PUBCHEM_PHARMACOPHORE_FEATURES>
22
1 1 acceptor
1 11 acceptor
1 12 acceptor
1 13 donor
1 14 donor
1 15 donor
1 16 donor
1 2 acceptor
1 3 acceptor
1 5 acceptor
1 5 donor
1 6 acceptor
1 7 acceptor
1 7 donor
1 8 acceptor
1 8 donor
1 9 acceptor
1 9 donor
6 2 17 18 19 20 22 rings
6 3 21 23 24 25 26 rings
6 34 35 37 38 39 41 rings
6 42 43 44 45 46 47 rings

> <PUBCHEM_HEAVY_ATOM_COUNT>
47

> <PUBCHEM_ATOM_DEF_STEREO_COUNT>
10

> <PUBCHEM_ATOM_UDEF_STEREO_COUNT>
0

> <PUBCHEM_BOND_DEF_STEREO_COUNT>
1

> <PUBCHEM_BOND_UDEF_STEREO_COUNT>
0

> <PUBCHEM_ISOTOPIC_ATOM_COUNT>
0

> <PUBCHEM_COMPONENT_COUNT>
1

> <PUBCHEM_CACTVS_TAUTO_COUNT>
180

> <PUBCHEM_CONFORMER_ID>
009602FE00000001

> <PUBCHEM_MMFF94_ENERGY>
126.7127

> <PUBCHEM_FEATURE_SELFOVERLAP>
111.774

> <PUBCHEM_SHAPE_FINGERPRINT>
11331351 85 18202276971063956311
12758862 56 18334011683997566803
12857493 111 18338516339695267694
13008946 113 18045504363763956268
13944108 23 18264772228118012812
14400156 413 18410570712545153436
14937079 2 18411983576829200331
15198563 99 18194692461965859182
15400415 2 17546449341920674697
15439362 3 18121782991604203425
16664035 1 18409446955900981155
19301679 30 18266739074406439634
3103668 31 18118402844016204293
4046055 4 18196103140032722998
4066623 53 18340489967256591106
4760202 170 18337663136670024135
58902169 19 18059564811966475575

> <PUBCHEM_SHAPE_MULTIPOLES>
873.33
27.38
10.7
1.25
96.69
17.59
0.1
-22.82
1.08
-26.2
1.04
-0.4
-0.05
2.51

> <PUBCHEM_SHAPE_SELFOVERLAP>
1846.487

> <PUBCHEM_SHAPE_VOLUME>
482.3

> <PUBCHEM_COORDINATE_TYPE>
2
5
10

$$$$
