11423723
  -OEChem-02172602273D

 26 27  0     1  0  0  0  0  0999 V2000
   -0.8863    1.8881    0.9276 O   0  0  0  0  0  0  0  0  0  0  0  0
    3.4141    0.5713    0.2388 O   0  0  0  0  0  0  0  0  0  0  0  0
   -0.9561   -1.1100   -0.3738 N   0  0  1  0  0  0  0  0  0  0  0  0
   -0.2197    0.1447   -0.6525 C   0  0  2  0  0  0  0  0  0  0  0  0
    1.0922    0.0343    0.1218 C   0  0  1  0  0  0  0  0  0  0  0  0
   -1.1787    1.2906   -0.3275 C   0  0  1  0  0  0  0  0  0  0  0  0
    1.3212   -1.4724    0.1340 C   0  0  0  0  0  0  0  0  0  0  0  0
   -0.0820   -2.0069    0.3882 C   0  0  0  0  0  0  0  0  0  0  0  0
   -2.1987   -0.7613    0.3146 C   0  0  0  0  0  0  0  0  0  0  0  0
   -2.5381    0.6055   -0.2630 C   0  0  0  0  0  0  0  0  0  0  0  0
    2.2319    0.8160   -0.5081 C   0  0  0  0  0  0  0  0  0  0  0  0
   -0.0266    0.1441   -1.7338 H   0  0  0  0  0  0  0  0  0  0  0  0
    0.9715    0.3488    1.1671 H   0  0  0  0  0  0  0  0  0  0  0  0
   -1.1535    2.0726   -1.0931 H   0  0  0  0  0  0  0  0  0  0  0  0
    2.0245   -1.7835    0.9127 H   0  0  0  0  0  0  0  0  0  0  0  0
    1.6977   -1.8250   -0.8344 H   0  0  0  0  0  0  0  0  0  0  0  0
   -0.1873   -3.0434    0.0539 H   0  0  0  0  0  0  0  0  0  0  0  0
   -0.2870   -1.9723    1.4653 H   0  0  0  0  0  0  0  0  0  0  0  0
   -2.0638   -0.6707    1.3997 H   0  0  0  0  0  0  0  0  0  0  0  0
   -2.9874   -1.4940    0.1202 H   0  0  0  0  0  0  0  0  0  0  0  0
   -2.9557    0.4943   -1.2711 H   0  0  0  0  0  0  0  0  0  0  0  0
   -3.2593    1.1372    0.3649 H   0  0  0  0  0  0  0  0  0  0  0  0
    2.0283    1.8915   -0.5048 H   0  0  0  0  0  0  0  0  0  0  0  0
    2.4137    0.5049   -1.5417 H   0  0  0  0  0  0  0  0  0  0  0  0
   -1.5558    2.5749    1.0880 H   0  0  0  0  0  0  0  0  0  0  0  0
    3.2608    0.8878    1.1454 H   0  0  0  0  0  0  0  0  0  0  0  0
  1  6  1  0  0  0  0
  1 25  1  0  0  0  0
  2 11  1  0  0  0  0
  2 26  1  0  0  0  0
  3  4  1  0  0  0  0
  3  8  1  0  0  0  0
  3  9  1  0  0  0  0
  4  5  1  0  0  0  0
  4  6  1  0  0  0  0
  4 12  1  0  0  0  0
  5  7  1  0  0  0  0
  5 11  1  0  0  0  0
  5 13  1  0  0  0  0
  6 10  1  0  0  0  0
  6 14  1  0  0  0  0
  7  8  1  0  0  0  0
  7 15  1  0  0  0  0
  7 16  1  0  0  0  0
  8 17  1  0  0  0  0
  8 18  1  0  0  0  0
  9 10  1  0  0  0  0
  9 19  1  0  0  0  0
  9 20  1  0  0  0  0
 10 21  1  0  0  0  0
 10 22  1  0  0  0  0
 11 23  1  0  0  0  0
 11 24  1  0  0  0  0
M  END
> <PUBCHEM_COMPOUND_CID>
11423723

> <PUBCHEM_CONFORMER_RMSD>
0.6

> <PUBCHEM_CONFORMER_DIVERSEORDER>
1
5
2
3
4

> <PUBCHEM_MMFF94_PARTIAL_CHARGES>
10
1 -0.68
11 0.28
2 -0.68
25 0.4
26 0.4
3 -0.81
4 0.27
6 0.28
8 0.27
9 0.27

> <PUBCHEM_EFFECTIVE_ROTOR_COUNT>
2.2

> <PUBCHEM_PHARMACOPHORE_FEATURES>
7
1 1 acceptor
1 1 donor
1 2 acceptor
1 2 donor
1 3 cation
5 3 4 5 7 8 rings
5 3 4 6 9 10 rings

> <PUBCHEM_HEAVY_ATOM_COUNT>
11

> <PUBCHEM_ATOM_DEF_STEREO_COUNT>
3

> <PUBCHEM_ATOM_UDEF_STEREO_COUNT>
0

> <PUBCHEM_BOND_DEF_STEREO_COUNT>
0

> <PUBCHEM_BOND_UDEF_STEREO_COUNT>
0

> <PUBCHEM_ISOTOPIC_ATOM_COUNT>
0

> <PUBCHEM_COMPONENT_COUNT>
1

> <PUBCHEM_CACTVS_TAUTO_COUNT>
1

> <PUBCHEM_CONFORMER_ID>
00AE4FEB00000001

> <PUBCHEM_MMFF94_ENERGY>
25.1048

> <PUBCHEM_FEATURE_SELFOVERLAP>
35.799

> <PUBCHEM_SHAPE_FINGERPRINT>
12423570 1 16192227023337240303
13024252 1 12613020717214315574
14325111 11 18407759244348884132
15310529 11 14405197156965633598
15775835 57 18412548682339239520
16945 1 18261116330343066975
20871998 184 18125730233815828670
21028194 46 18335421270556193740
21040471 1 18408041827174079518
23235685 24 18408597067587299460
23552423 10 18191303784477896031
241688 4 16609127210953589035
2748010 2 18335705975031884527
369184 2 18340483464860766804
5084963 1 18125994962688184459
528862 383 18115016394909035522

> <PUBCHEM_SHAPE_MULTIPOLES>
209.66
3.56
1.89
0.77
1.63
0.42
-0.03
-0.99
-0.07
-0.15
-0.28
-0.07
-0.13
-0.09

> <PUBCHEM_SHAPE_SELFOVERLAP>
430.688

> <PUBCHEM_SHAPE_VOLUME>
124

> <PUBCHEM_COORDINATE_TYPE>
2
5
10

$$$$
