10427506
  -OEChem-02172602513D

 55 59  0     1  0  0  0  0  0999 V2000
   -4.3765   -0.5056   -0.0397 O   0  0  0  0  0  0  0  0  0  0  0  0
    2.8733   -2.8847   -0.9900 O   0  0  0  0  0  0  0  0  0  0  0  0
    6.3108    0.2077    0.9954 O   0  0  0  0  0  0  0  0  0  0  0  0
   -2.1472    0.5443   -0.2222 C   0  0  1  0  0  0  0  0  0  0  0  0
   -1.3445   -0.7523    0.0155 C   0  0  1  0  0  0  0  0  0  0  0  0
    0.1350   -0.6732   -0.4267 C   0  0  1  0  0  0  0  0  0  0  0  0
    0.8735    0.5839    0.1038 C   0  0  1  0  0  0  0  0  0  0  0  0
   -3.4143    0.3036    0.6331 C   0  0  2  0  0  0  0  0  0  0  0  0
   -1.3740    1.7716    0.3134 C   0  0  0  0  0  0  0  0  0  0  0  0
   -1.5766   -1.0638    1.5049 C   0  0  0  0  0  0  0  0  0  0  0  0
    2.3675    0.6648   -0.3992 C   0  0  2  0  0  0  0  0  0  0  0  0
    0.0595    1.8569   -0.2076 C   0  0  0  0  0  0  0  0  0  0  0  0
   -2.9262   -0.4406    1.8780 C   0  0  0  0  0  0  0  0  0  0  0  0
    0.8830   -1.9543   -0.0433 C   0  0  0  0  0  0  0  0  0  0  0  0
   -2.4865    0.7370   -1.7096 C   0  0  0  0  0  0  0  0  0  0  0  0
    3.0720   -0.6609   -0.1703 C   0  0  0  0  0  0  0  0  0  0  0  0
    3.1068    1.7734    0.4032 C   0  0  0  0  0  0  0  0  0  0  0  0
    2.3251   -1.9130   -0.4752 C   0  0  0  0  0  0  0  0  0  0  0  0
    2.4601    0.9858   -1.9094 C   0  0  0  0  0  0  0  0  0  0  0  0
   -5.6915   -0.2378    0.4228 C   0  0  0  0  0  0  0  0  0  0  0  0
    4.6220    1.7315    0.2469 C   0  0  0  0  0  0  0  0  0  0  0  0
   -6.8173   -0.5166   -0.5403 C   0  0  0  0  0  0  0  0  0  0  0  0
   -6.4222    0.9003   -0.2433 C   0  0  0  0  0  0  0  0  0  0  0  0
    4.3203   -0.8208    0.2906 C   0  0  0  0  0  0  0  0  0  0  0  0
    5.1678    0.3627    0.5691 C   0  0  0  0  0  0  0  0  0  0  0  0
   -1.8153   -1.5669   -0.5554 H   0  0  0  0  0  0  0  0  0  0  0  0
    0.1275   -0.6156   -1.5232 H   0  0  0  0  0  0  0  0  0  0  0  0
    0.9131    0.4941    1.1994 H   0  0  0  0  0  0  0  0  0  0  0  0
   -3.8700    1.2637    0.9093 H   0  0  0  0  0  0  0  0  0  0  0  0
   -1.3351    1.7604    1.4098 H   0  0  0  0  0  0  0  0  0  0  0  0
   -1.9087    2.6919    0.0455 H   0  0  0  0  0  0  0  0  0  0  0  0
   -0.7943   -0.6409    2.1438 H   0  0  0  0  0  0  0  0  0  0  0  0
   -1.5843   -2.1450    1.6816 H   0  0  0  0  0  0  0  0  0  0  0  0
    0.0376    2.0489   -1.2848 H   0  0  0  0  0  0  0  0  0  0  0  0
    0.5317    2.7305    0.2543 H   0  0  0  0  0  0  0  0  0  0  0  0
   -3.6275   -1.2120    2.2129 H   0  0  0  0  0  0  0  0  0  0  0  0
   -2.7806    0.2585    2.7095 H   0  0  0  0  0  0  0  0  0  0  0  0
    0.4050   -2.8157   -0.5248 H   0  0  0  0  0  0  0  0  0  0  0  0
    0.8732   -2.1291    1.0383 H   0  0  0  0  0  0  0  0  0  0  0  0
   -1.5922    0.8937   -2.3199 H   0  0  0  0  0  0  0  0  0  0  0  0
   -3.0010   -0.1366   -2.1245 H   0  0  0  0  0  0  0  0  0  0  0  0
   -3.1413    1.6044   -1.8480 H   0  0  0  0  0  0  0  0  0  0  0  0
    2.8724    1.6683    1.4719 H   0  0  0  0  0  0  0  0  0  0  0  0
    2.7568    2.7685    0.1048 H   0  0  0  0  0  0  0  0  0  0  0  0
    3.4914    0.9182   -2.2759 H   0  0  0  0  0  0  0  0  0  0  0  0
    1.8683    0.2936   -2.5167 H   0  0  0  0  0  0  0  0  0  0  0  0
    2.1141    2.0014   -2.1281 H   0  0  0  0  0  0  0  0  0  0  0  0
   -5.9082   -0.4207    1.4706 H   0  0  0  0  0  0  0  0  0  0  0  0
    5.0710    2.4536    0.9382 H   0  0  0  0  0  0  0  0  0  0  0  0
    4.9299    1.9989   -0.7689 H   0  0  0  0  0  0  0  0  0  0  0  0
   -7.7534   -0.8758   -0.1311 H   0  0  0  0  0  0  0  0  0  0  0  0
   -6.5695   -0.9156   -1.5161 H   0  0  0  0  0  0  0  0  0  0  0  0
   -5.9125    1.4544   -1.0219 H   0  0  0  0  0  0  0  0  0  0  0  0
   -7.0905    1.4943    0.3677 H   0  0  0  0  0  0  0  0  0  0  0  0
    4.7699   -1.7944    0.4533 H   0  0  0  0  0  0  0  0  0  0  0  0
  1  8  1  0  0  0  0
  1 20  1  0  0  0  0
  2 18  2  0  0  0  0
  3 25  2  0  0  0  0
  4  5  1  0  0  0  0
  4  8  1  0  0  0  0
  4  9  1  0  0  0  0
  4 15  1  0  0  0  0
  5  6  1  0  0  0  0
  5 10  1  0  0  0  0
  5 26  1  0  0  0  0
  6  7  1  0  0  0  0
  6 14  1  0  0  0  0
  6 27  1  0  0  0  0
  7 11  1  0  0  0  0
  7 12  1  0  0  0  0
  7 28  1  0  0  0  0
  8 13  1  0  0  0  0
  8 29  1  0  0  0  0
  9 12  1  0  0  0  0
  9 30  1  0  0  0  0
  9 31  1  0  0  0  0
 10 13  1  0  0  0  0
 10 32  1  0  0  0  0
 10 33  1  0  0  0  0
 11 16  1  0  0  0  0
 11 17  1  0  0  0  0
 11 19  1  0  0  0  0
 12 34  1  0  0  0  0
 12 35  1  0  0  0  0
 13 36  1  0  0  0  0
 13 37  1  0  0  0  0
 14 18  1  0  0  0  0
 14 38  1  0  0  0  0
 14 39  1  0  0  0  0
 15 40  1  0  0  0  0
 15 41  1  0  0  0  0
 15 42  1  0  0  0  0
 16 18  1  0  0  0  0
 16 24  2  0  0  0  0
 17 21  1  0  0  0  0
 17 43  1  0  0  0  0
 17 44  1  0  0  0  0
 19 45  1  0  0  0  0
 19 46  1  0  0  0  0
 19 47  1  0  0  0  0
 20 22  1  0  0  0  0
 20 23  1  0  0  0  0
 20 48  1  0  0  0  0
 21 25  1  0  0  0  0
 21 49  1  0  0  0  0
 21 50  1  0  0  0  0
 22 23  1  0  0  0  0
 22 51  1  0  0  0  0
 22 52  1  0  0  0  0
 23 53  1  0  0  0  0
 23 54  1  0  0  0  0
 24 25  1  0  0  0  0
 24 55  1  0  0  0  0
M  END
> <PUBCHEM_COMPOUND_CID>
10427506

> <PUBCHEM_CONFORMER_RMSD>
0.8

> <PUBCHEM_CONFORMER_DIVERSEORDER>
1
14
19
15
6
8
4
17
18
16
12
5
9
11
3
13
7
10
2

> <PUBCHEM_MMFF94_PARTIAL_CHARGES>
20
1 -0.43
11 0.14
14 0.06
16 -0.12
18 0.49
2 -0.57
20 0.05
21 0.06
22 -0.2
23 -0.2
24 -0.14
25 0.49
3 -0.57
48 0.1
51 0.1
52 0.1
53 0.1
54 0.1
55 0.15
8 0.28

> <PUBCHEM_EFFECTIVE_ROTOR_COUNT>
4.2

> <PUBCHEM_PHARMACOPHORE_FEATURES>
7
1 1 acceptor
1 2 acceptor
1 3 acceptor
5 4 5 8 10 13 rings
6 11 16 17 21 24 25 rings
6 4 5 6 7 9 12 rings
6 6 7 11 14 16 18 rings

> <PUBCHEM_HEAVY_ATOM_COUNT>
25

> <PUBCHEM_ATOM_DEF_STEREO_COUNT>
3

> <PUBCHEM_ATOM_UDEF_STEREO_COUNT>
3

> <PUBCHEM_BOND_DEF_STEREO_COUNT>
0

> <PUBCHEM_BOND_UDEF_STEREO_COUNT>
0

> <PUBCHEM_ISOTOPIC_ATOM_COUNT>
0

> <PUBCHEM_COMPONENT_COUNT>
1

> <PUBCHEM_CACTVS_TAUTO_COUNT>
4

> <PUBCHEM_CONFORMER_ID>
009F1C7200000001

> <PUBCHEM_MMFF94_ENERGY>
76.0817

> <PUBCHEM_FEATURE_SELFOVERLAP>
35.724

> <PUBCHEM_SHAPE_FINGERPRINT>
10 15 18261945350270435792
10366900 7 18338813263875206816
10411042 1 17981328885666546910
10906281 52 18189354457820466529
11796584 16 16081092588537602866
12011746 2 18409456890354839806
12236239 1 17346882230464321323
12596602 18 17132119022136144395
13140716 1 18267865176191374346
13224815 77 18341618092215027404
13402501 40 18260828202372395945
13533116 47 18059858333202675162
16945 1 18342463629910928382
17349148 13 18334008402261840724
17492 89 18056199068385158518
200 152 18272651234390432401
20157964 124 18341614806770904191
20511986 3 17989193838088399631
20642791 13 18263083227812496205
20645477 70 18412263900216592622
21033648 29 18263906848295625352
21150785 3 17489577979721419309
21267235 1 18412266104251993174
21279426 13 18263361383501914005
21285901 2 18041000601006177135
21304304 249 18259981549124780202
22149856 69 18269014067464620755
22182313 1 18187923919935277628
22224240 67 18201711886680438370
23402539 116 17749104530655437623
23557571 272 17676485017055690125
23559900 14 17749967590879396422
23569917 315 18202007641897180726
26918003 58 18040437710828934617
3004659 81 17894635854857695716
335352 9 18412828006412736134
34797466 226 14476964531721687816
34934 24 18412261770155588567
350125 39 18407478864467891532
3633792 109 18202002071919325287
4072396 5 18335415777303480842
42630746 31 18343866610742393902
4325135 7 17704069603306382415
4340502 62 18130787884081633463
474 4 18060139885973853712
5104073 3 18266746783396852835
5283173 99 18114175273421093317
58260988 393 16343712010426547659
59755656 215 18408608045819347582
6004065 56 18269548506998031569
70251023 43 18126575513444660199
9709674 26 18336554815299276770

> <PUBCHEM_SHAPE_MULTIPOLES>
496.88
13.43
2
1.27
10.71
0.49
-0.08
-0.96
1.19
-1.79
-0.3
0.19
0.03
0.73

> <PUBCHEM_SHAPE_SELFOVERLAP>
1070.346

> <PUBCHEM_SHAPE_VOLUME>
271.5

> <PUBCHEM_COORDINATE_TYPE>
2
5
10

$$$$
