11089528
  -OEChem-02172602263D

 44 47  0     1  0  0  0  0  0999 V2000
   -4.3909   -0.9714    0.5339 O   0  0  0  0  0  0  0  0  0  0  0  0
    0.2152   -2.2730    0.4255 O   0  0  0  0  0  0  0  0  0  0  0  0
   -1.2273    2.2722   -0.5704 O   0  0  0  0  0  0  0  0  0  0  0  0
    1.2509    1.5413   -0.7019 O   0  0  0  0  0  0  0  0  0  0  0  0
    4.1164   -1.0881   -2.1697 O   0  0  0  0  0  0  0  0  0  0  0  0
    7.2339    1.0892    0.7035 O   0  0  0  0  0  0  0  0  0  0  0  0
   -2.7607    0.5775    0.0250 C   0  0  0  0  0  0  0  0  0  0  0  0
   -4.0216    1.3436   -0.1010 C   0  0  0  0  0  0  0  0  0  0  0  0
   -4.9802    0.3553    0.5826 C   0  0  1  0  0  0  0  0  0  0  0  0
    1.9670   -0.7377   -0.3032 C   0  0  2  0  0  0  0  0  0  0  0  0
   -0.4423    0.0293   -0.0772 C   0  0  0  0  0  0  0  0  0  0  0  0
   -3.0502   -0.7352    0.3639 C   0  0  0  0  0  0  0  0  0  0  0  0
   -1.4590    0.9832   -0.2091 C   0  0  0  0  0  0  0  0  0  0  0  0
   -0.7410   -1.2989    0.2850 C   0  0  0  0  0  0  0  0  0  0  0  0
    0.9613    0.3974   -0.3696 C   0  0  0  0  0  0  0  0  0  0  0  0
    1.5005   -1.7368    0.7554 C   0  0  0  0  0  0  0  0  0  0  0  0
   -2.0650   -1.6956    0.4887 C   0  0  0  0  0  0  0  0  0  0  0  0
    3.3788   -0.2541   -0.0470 C   0  0  0  0  0  0  0  0  0  0  0  0
   -6.3276    0.3147   -0.0568 C   0  0  0  0  0  0  0  0  0  0  0  0
    4.3835   -0.4531   -0.9942 C   0  0  0  0  0  0  0  0  0  0  0  0
    3.6698    0.3967    1.1520 C   0  0  0  0  0  0  0  0  0  0  0  0
   -6.4862   -0.6362   -1.2058 C   0  0  0  0  0  0  0  0  0  0  0  0
   -7.3393    1.0841    0.3718 C   0  0  0  0  0  0  0  0  0  0  0  0
    5.6790   -0.0015   -0.7422 C   0  0  0  0  0  0  0  0  0  0  0  0
    4.9652    0.8482    1.4039 C   0  0  0  0  0  0  0  0  0  0  0  0
    5.9698    0.6491    0.4569 C   0  0  0  0  0  0  0  0  0  0  0  0
   -3.9967    2.3032    0.4238 H   0  0  0  0  0  0  0  0  0  0  0  0
   -4.2587    1.5080   -1.1578 H   0  0  0  0  0  0  0  0  0  0  0  0
   -5.0737    0.6097    1.6488 H   0  0  0  0  0  0  0  0  0  0  0  0
    1.9002   -1.2263   -1.2843 H   0  0  0  0  0  0  0  0  0  0  0  0
    2.1953   -2.5834    0.8072 H   0  0  0  0  0  0  0  0  0  0  0  0
    1.4517   -1.3044    1.7637 H   0  0  0  0  0  0  0  0  0  0  0  0
   -2.3123   -2.7191    0.7498 H   0  0  0  0  0  0  0  0  0  0  0  0
    2.9008    0.5697    1.8999 H   0  0  0  0  0  0  0  0  0  0  0  0
   -5.7218   -0.4551   -1.9684 H   0  0  0  0  0  0  0  0  0  0  0  0
   -6.4090   -1.6750   -0.8688 H   0  0  0  0  0  0  0  0  0  0  0  0
   -7.4615   -0.5245   -1.6926 H   0  0  0  0  0  0  0  0  0  0  0  0
   -0.2756    2.4398   -0.6438 H   0  0  0  0  0  0  0  0  0  0  0  0
   -8.3161    1.0474   -0.0986 H   0  0  0  0  0  0  0  0  0  0  0  0
   -7.2113    1.7696    1.2030 H   0  0  0  0  0  0  0  0  0  0  0  0
    6.4630   -0.1565   -1.4795 H   0  0  0  0  0  0  0  0  0  0  0  0
    5.1855    1.3559    2.3391 H   0  0  0  0  0  0  0  0  0  0  0  0
    4.9313   -1.1345   -2.6984 H   0  0  0  0  0  0  0  0  0  0  0  0
    7.7990    0.8679   -0.0565 H   0  0  0  0  0  0  0  0  0  0  0  0
  1  9  1  0  0  0  0
  1 12  1  0  0  0  0
  2 14  1  0  0  0  0
  2 16  1  0  0  0  0
  3 13  1  0  0  0  0
  3 38  1  0  0  0  0
  4 15  2  0  0  0  0
  5 20  1  0  0  0  0
  5 43  1  0  0  0  0
  6 26  1  0  0  0  0
  6 44  1  0  0  0  0
  7  8  1  0  0  0  0
  7 12  1  0  0  0  0
  7 13  2  0  0  0  0
  8  9  1  0  0  0  0
  8 27  1  0  0  0  0
  8 28  1  0  0  0  0
  9 19  1  0  0  0  0
  9 29  1  0  0  0  0
 10 15  1  0  0  0  0
 10 16  1  0  0  0  0
 10 18  1  0  0  0  0
 10 30  1  0  0  0  0
 11 13  1  0  0  0  0
 11 14  2  0  0  0  0
 11 15  1  0  0  0  0
 12 17  2  0  0  0  0
 14 17  1  0  0  0  0
 16 31  1  0  0  0  0
 16 32  1  0  0  0  0
 17 33  1  0  0  0  0
 18 20  2  0  0  0  0
 18 21  1  0  0  0  0
 19 22  1  0  0  0  0
 19 23  2  0  0  0  0
 20 24  1  0  0  0  0
 21 25  2  0  0  0  0
 21 34  1  0  0  0  0
 22 35  1  0  0  0  0
 22 36  1  0  0  0  0
 22 37  1  0  0  0  0
 23 39  1  0  0  0  0
 23 40  1  0  0  0  0
 24 26  2  0  0  0  0
 24 41  1  0  0  0  0
 25 26  1  0  0  0  0
 25 42  1  0  0  0  0
M  END
> <PUBCHEM_COMPOUND_CID>
11089528

> <PUBCHEM_CONFORMER_RMSD>
0.6

> <PUBCHEM_CONFORMER_DIVERSEORDER>
1
19
17
22
20
10
15
7
25
29
21
27
2
9
18
12
11
23
14
24
26
28
8
13
3
5
6
4
16

> <PUBCHEM_MMFF94_PARTIAL_CHARGES>
35
1 -0.36
10 0.2
11 0.09
12 0.08
13 0.08
14 0.08
15 0.42
16 0.28
17 -0.15
18 -0.14
19 -0.28
2 -0.36
20 0.08
21 -0.15
22 0.14
23 -0.3
24 -0.15
25 -0.15
26 0.08
3 -0.53
33 0.15
34 0.15
38 0.45
39 0.15
4 -0.57
40 0.15
41 0.15
42 0.15
43 0.45
44 0.45
5 -0.53
6 -0.53
7 -0.14
8 0.14
9 0.42

> <PUBCHEM_EFFECTIVE_ROTOR_COUNT>
3.2

> <PUBCHEM_PHARMACOPHORE_FEATURES>
10
1 1 acceptor
1 2 acceptor
1 3 donor
1 4 acceptor
1 5 donor
1 6 donor
5 1 7 8 9 12 rings
6 18 20 21 24 25 26 rings
6 2 10 11 14 15 16 rings
6 7 11 12 13 14 17 rings

> <PUBCHEM_HEAVY_ATOM_COUNT>
26

> <PUBCHEM_ATOM_DEF_STEREO_COUNT>
0

> <PUBCHEM_ATOM_UDEF_STEREO_COUNT>
2

> <PUBCHEM_BOND_DEF_STEREO_COUNT>
0

> <PUBCHEM_BOND_UDEF_STEREO_COUNT>
0

> <PUBCHEM_ISOTOPIC_ATOM_COUNT>
0

> <PUBCHEM_COMPONENT_COUNT>
1

> <PUBCHEM_CACTVS_TAUTO_COUNT>
106

> <PUBCHEM_CONFORMER_ID>
00A9367800000001

> <PUBCHEM_MMFF94_ENERGY>
78.2389

> <PUBCHEM_FEATURE_SELFOVERLAP>
50.881

> <PUBCHEM_SHAPE_FINGERPRINT>
10 15 17894353301823185744
10670039 82 17969234343432529636
10906281 52 18114197310697263643
11646440 116 18340779199466809721
11796584 16 15357699686536014865
12011746 2 18408325475567655239
12166972 35 12679460897999121218
12516196 113 18272932726262617361
12616971 3 16008750251243222862
12730499 353 17918277545884384174
12838862 33 18261939804844904029
13140716 1 18115873081865179136
13402501 40 18342454863861929184
13533116 47 16917074313288286406
14251764 18 17603588543538878707
14933364 13 17346881143785017097
15142383 8 15791719802640657846
15183329 4 17967249802364652565
15196674 1 18189897522296574131
18335252 98 17346598616631165335
18681886 176 18059565932525287907
21033648 29 18130215069068225866
21150785 3 16773794818241609567
21267235 1 18335713754045832419
21792934 111 18189324680870031121
21859007 373 17532069683748997061
221357 26 17417813915968724832
22224240 67 18409441510034735570
22956985 138 17099168716136926610
23402539 116 18410289250511152687
23536379 177 16630529509915335107
23559900 14 18338514248484473161
23569914 152 16903265306405405853
23569914 2 16410086116991717569
23569943 247 17983589506668097639
24771293 8 18411978100176724868
3004659 81 17895202116236300812
335352 9 18333734640829966836
34797466 226 17561086903501078796
34934 24 18335416864036279931
350125 39 18260550043205825229
3545911 37 18409451371248167331
4072396 5 17894625946426185706
4073 2 18201440319624203934
4093350 32 17417817201307281191
5104073 3 18116435834767083161
5385378 56 18261394386689801939
5486654 2 18334861618784253794
5758199 1 18411703167099039107
59755656 215 18409169887449627943

> <PUBCHEM_SHAPE_MULTIPOLES>
499.85
17.48
1.7
1.13
4.49
0.22
-0.24
-4.87
0.2
0.37
0.09
-1.1
0.13
0.71

> <PUBCHEM_SHAPE_SELFOVERLAP>
1115.794

> <PUBCHEM_SHAPE_VOLUME>
265.2

> <PUBCHEM_COORDINATE_TYPE>
2
5
10

$$$$
