102434452
  -OEChem-02172602453D

 51 52  0     0  0  0  0  0  0999 V2000
    0.8627    2.7401    0.6786 O   0  0  0  0  0  0  0  0  0  0  0  0
    3.0539    1.3973   -0.8842 O   0  0  0  0  0  0  0  0  0  0  0  0
    1.6944   -3.6915    0.2010 O   0  0  0  0  0  0  0  0  0  0  0  0
   -1.0329    2.5043   -0.6061 O   0  0  0  0  0  0  0  0  0  0  0  0
   -6.2771   -0.1785   -0.4362 O   0  0  0  0  0  0  0  0  0  0  0  0
    3.5944    0.4899    1.1611 O   0  0  0  0  0  0  0  0  0  0  0  0
    3.5108   -2.2819    0.3113 O   0  0  0  0  0  0  0  0  0  0  0  0
   -0.0420   -1.6160    0.0417 N   0  0  0  0  0  0  0  0  0  0  0  0
   -0.7044   -0.4180   -0.0247 C   0  0  0  0  0  0  0  0  0  0  0  0
    0.2355    0.5875    0.0279 C   0  0  0  0  0  0  0  0  0  0  0  0
    1.5077   -0.0277    0.1303 C   0  0  0  0  0  0  0  0  0  0  0  0
    1.3064   -1.3903    0.1367 C   0  0  0  0  0  0  0  0  0  0  0  0
   -2.1416   -0.3572   -0.1301 C   0  0  0  0  0  0  0  0  0  0  0  0
   -0.0596    1.9932   -0.0153 C   0  0  0  0  0  0  0  0  0  0  0  0
   -2.7868   -0.9468   -1.2173 C   0  0  0  0  0  0  0  0  0  0  0  0
   -2.8865    0.2917    0.8547 C   0  0  0  0  0  0  0  0  0  0  0  0
    2.7910    0.6130    0.2139 C   0  0  0  0  0  0  0  0  0  0  0  0
    2.2723   -2.4417    0.2235 C   0  0  0  0  0  0  0  0  0  0  0  0
   -4.1765   -0.8876   -1.3197 C   0  0  0  0  0  0  0  0  0  0  0  0
   -4.2763    0.3511    0.7524 C   0  0  0  0  0  0  0  0  0  0  0  0
   -4.9213   -0.2387   -0.3347 C   0  0  0  0  0  0  0  0  0  0  0  0
    0.6765    4.1593    0.7094 C   0  0  0  0  0  0  0  0  0  0  0  0
    4.3062    2.0901   -0.9183 C   0  0  0  0  0  0  0  0  0  0  0  0
    2.5602   -4.8288    0.2821 C   0  0  0  0  0  0  0  0  0  0  0  0
    1.7921    4.7854    1.5186 C   0  0  0  0  0  0  0  0  0  0  0  0
    4.3935    2.8884   -2.2015 C   0  0  0  0  0  0  0  0  0  0  0  0
    1.7235   -6.0896    0.2408 C   0  0  0  0  0  0  0  0  0  0  0  0
   -6.9763    0.5032    0.6044 C   0  0  0  0  0  0  0  0  0  0  0  0
   -0.4782   -2.5282    0.0255 H   0  0  0  0  0  0  0  0  0  0  0  0
   -2.2231   -1.4538   -1.9970 H   0  0  0  0  0  0  0  0  0  0  0  0
   -2.4014    0.7529    1.7119 H   0  0  0  0  0  0  0  0  0  0  0  0
   -4.6735   -1.3476   -2.1694 H   0  0  0  0  0  0  0  0  0  0  0  0
   -4.7930    0.8699    1.5526 H   0  0  0  0  0  0  0  0  0  0  0  0
    0.6948    4.5493   -0.3141 H   0  0  0  0  0  0  0  0  0  0  0  0
   -0.2912    4.3881    1.1690 H   0  0  0  0  0  0  0  0  0  0  0  0
    4.3728    2.7620   -0.0558 H   0  0  0  0  0  0  0  0  0  0  0  0
    5.1240    1.3625   -0.8760 H   0  0  0  0  0  0  0  0  0  0  0  0
    3.2561   -4.8155   -0.5637 H   0  0  0  0  0  0  0  0  0  0  0  0
    3.1260   -4.7874    1.2191 H   0  0  0  0  0  0  0  0  0  0  0  0
    1.8004    4.3853    2.5378 H   0  0  0  0  0  0  0  0  0  0  0  0
    2.7662    4.5507    1.0773 H   0  0  0  0  0  0  0  0  0  0  0  0
    1.6787    5.8720    1.5660 H   0  0  0  0  0  0  0  0  0  0  0  0
    4.3079    2.2296   -3.0719 H   0  0  0  0  0  0  0  0  0  0  0  0
    3.5692    3.6066   -2.2641 H   0  0  0  0  0  0  0  0  0  0  0  0
    5.3407    3.4315   -2.2608 H   0  0  0  0  0  0  0  0  0  0  0  0
    1.0094   -6.1054    1.0709 H   0  0  0  0  0  0  0  0  0  0  0  0
    2.3550   -6.9804    0.3009 H   0  0  0  0  0  0  0  0  0  0  0  0
    1.1374   -6.1330   -0.6832 H   0  0  0  0  0  0  0  0  0  0  0  0
   -8.0430    0.4549    0.3623 H   0  0  0  0  0  0  0  0  0  0  0  0
   -6.7051    1.5637    0.6437 H   0  0  0  0  0  0  0  0  0  0  0  0
   -6.8449    0.0048    1.5708 H   0  0  0  0  0  0  0  0  0  0  0  0
  1 14  1  0  0  0  0
  1 22  1  0  0  0  0
  2 17  1  0  0  0  0
  2 23  1  0  0  0  0
  3 18  1  0  0  0  0
  3 24  1  0  0  0  0
  4 14  2  0  0  0  0
  5 21  1  0  0  0  0
  5 28  1  0  0  0  0
  6 17  2  0  0  0  0
  7 18  2  0  0  0  0
  8  9  1  0  0  0  0
  8 12  1  0  0  0  0
  8 29  1  0  0  0  0
  9 10  2  0  0  0  0
  9 13  1  0  0  0  0
 10 11  1  0  0  0  0
 10 14  1  0  0  0  0
 11 12  2  0  0  0  0
 11 17  1  0  0  0  0
 12 18  1  0  0  0  0
 13 15  2  0  0  0  0
 13 16  1  0  0  0  0
 15 19  1  0  0  0  0
 15 30  1  0  0  0  0
 16 20  2  0  0  0  0
 16 31  1  0  0  0  0
 19 21  2  0  0  0  0
 19 32  1  0  0  0  0
 20 21  1  0  0  0  0
 20 33  1  0  0  0  0
 22 25  1  0  0  0  0
 22 34  1  0  0  0  0
 22 35  1  0  0  0  0
 23 26  1  0  0  0  0
 23 36  1  0  0  0  0
 23 37  1  0  0  0  0
 24 27  1  0  0  0  0
 24 38  1  0  0  0  0
 24 39  1  0  0  0  0
 25 40  1  0  0  0  0
 25 41  1  0  0  0  0
 25 42  1  0  0  0  0
 26 43  1  0  0  0  0
 26 44  1  0  0  0  0
 26 45  1  0  0  0  0
 27 46  1  0  0  0  0
 27 47  1  0  0  0  0
 27 48  1  0  0  0  0
 28 49  1  0  0  0  0
 28 50  1  0  0  0  0
 28 51  1  0  0  0  0
M  END
> <PUBCHEM_COMPOUND_CID>
102434452

> <PUBCHEM_CONFORMER_RMSD>
1

> <PUBCHEM_CONFORMER_DIVERSEORDER>
2
16
17
13
4
9
20
3
14
12
18
11
5
7
19
22
6
1
10
8
15
21
23

> <PUBCHEM_MMFF94_PARTIAL_CHARGES>
30
1 -0.43
10 -0.09
11 -0.09
12 -0.24
13 0.05
14 0.81
15 -0.15
16 -0.15
17 0.81
18 0.81
19 -0.15
2 -0.43
20 -0.15
21 0.08
22 0.28
23 0.28
24 0.28
28 0.28
29 0.27
3 -0.43
30 0.15
31 0.15
32 0.15
33 0.15
4 -0.57
5 -0.36
6 -0.57
7 -0.57
8 0.03
9 -0.2

> <PUBCHEM_EFFECTIVE_ROTOR_COUNT>
11

> <PUBCHEM_PHARMACOPHORE_FEATURES>
8
1 4 acceptor
1 5 acceptor
1 6 acceptor
1 7 acceptor
1 8 cation
1 8 donor
5 8 9 10 11 12 rings
6 13 15 16 19 20 21 rings

> <PUBCHEM_HEAVY_ATOM_COUNT>
28

> <PUBCHEM_ATOM_DEF_STEREO_COUNT>
0

> <PUBCHEM_ATOM_UDEF_STEREO_COUNT>
0

> <PUBCHEM_BOND_DEF_STEREO_COUNT>
0

> <PUBCHEM_BOND_UDEF_STEREO_COUNT>
0

> <PUBCHEM_ISOTOPIC_ATOM_COUNT>
0

> <PUBCHEM_COMPONENT_COUNT>
1

> <PUBCHEM_CACTVS_TAUTO_COUNT>
7

> <PUBCHEM_CONFORMER_ID>
061B069400000002

> <PUBCHEM_MMFF94_ENERGY>
63.5434

> <PUBCHEM_FEATURE_SELFOVERLAP>
40.599

> <PUBCHEM_SHAPE_FINGERPRINT>
10411042 1 18123468272088649195
10622 236 17772155753647303039
11578080 2 17556825119544778457
12107183 9 17766285276271210033
12236239 1 18060699499011959831
12293681 160 18198922468520342680
12553582 1 18196361529276114991
13140716 1 18124024887133613953
13692114 37 17977093884445347571
13911987 19 18189628317656774644
13955234 65 18412543245548784347
14114211 80 18119263988747675853
14790565 3 18265061403696967061
14863182 85 18410284827153669626
15475509 8 17773062854280622245
1601671 61 18412544348833529285
17980427 26 18055895835019828084
1813 80 17911525298227273943
18681886 176 16845012432830863861
19319366 153 18410578417779552646
21344244 78 18198326395435698427
21478907 32 17979069380258935131
22033318 11 17769967618270256177
23559900 14 18191857929616368230
3886686 26 17405386346794324120
633830 44 17986104347600550117
70251023 43 18120096087227247787
79837 15 17403158791606488513

> <PUBCHEM_SHAPE_MULTIPOLES>
530.16
10.45
6.62
1.21
18.44
6.7
-0.37
-2.36
-1.9
-10.73
1.89
-0.63
-1.04
-1.62

> <PUBCHEM_SHAPE_SELFOVERLAP>
1117.129

> <PUBCHEM_SHAPE_VOLUME>
300

> <PUBCHEM_COORDINATE_TYPE>
2
5
10

$$$$
