102553073
  -OEChem-02172602513D

 42 45  0     1  0  0  0  0  0999 V2000
   -0.3094   -2.2398   -0.8792 N   0  0  0  0  0  0  0  0  0  0  0  0
   -3.9909    0.0875    0.8729 N   0  0  0  0  0  0  0  0  0  0  0  0
   -2.9397    1.1837   -0.9980 N   0  0  0  0  0  0  0  0  0  0  0  0
    2.3710   -0.7278    0.5854 C   0  0  1  0  0  0  0  0  0  0  0  0
    1.6900   -2.0931    0.5066 C   0  0  1  0  0  0  0  0  0  0  0  0
    2.3901   -1.6765    1.7694 C   0  0  0  0  0  0  0  0  0  0  0  0
    3.6621   -0.5955   -0.2065 C   0  0  0  0  0  0  0  0  0  0  0  0
    1.5264    0.5553    0.5750 C   0  0  0  0  0  0  0  0  0  0  0  0
    0.2114   -2.2772    0.4829 C   0  0  0  0  0  0  0  0  0  0  0  0
    3.3293   -0.1090   -1.6133 C   0  0  0  0  0  0  0  0  0  0  0  0
    1.6602    1.4767   -0.4954 C   0  0  0  0  0  0  0  0  0  0  0  0
    2.7050    1.2846   -1.5747 C   0  0  0  0  0  0  0  0  0  0  0  0
    0.6125    0.8959    1.5930 C   0  0  0  0  0  0  0  0  0  0  0  0
    0.8869    2.6511   -0.5373 C   0  0  0  0  0  0  0  0  0  0  0  0
   -0.1561    2.0623    1.5420 C   0  0  0  0  0  0  0  0  0  0  0  0
   -1.7552   -2.4106   -0.8864 C   0  0  0  0  0  0  0  0  0  0  0  0
   -0.0237    2.9373    0.4733 C   0  0  0  0  0  0  0  0  0  0  0  0
   -2.4726   -1.1329   -0.5408 C   0  0  0  0  0  0  0  0  0  0  0  0
   -3.3322   -1.0404    0.5346 C   0  0  0  0  0  0  0  0  0  0  0  0
   -2.3133    0.0222   -1.2789 C   0  0  0  0  0  0  0  0  0  0  0  0
   -3.7518    1.1461    0.0755 C   0  0  0  0  0  0  0  0  0  0  0  0
    2.1832   -2.8722   -0.0694 H   0  0  0  0  0  0  0  0  0  0  0  0
    1.7887   -1.4767    2.6464 H   0  0  0  0  0  0  0  0  0  0  0  0
    3.3227   -2.1758    2.0117 H   0  0  0  0  0  0  0  0  0  0  0  0
    4.1891   -1.5552   -0.2704 H   0  0  0  0  0  0  0  0  0  0  0  0
    4.3379    0.1069    0.2971 H   0  0  0  0  0  0  0  0  0  0  0  0
   -0.0015   -3.2602    0.9229 H   0  0  0  0  0  0  0  0  0  0  0  0
   -0.2939   -1.5475    1.1195 H   0  0  0  0  0  0  0  0  0  0  0  0
    4.2334   -0.0892   -2.2321 H   0  0  0  0  0  0  0  0  0  0  0  0
    2.6295   -0.8084   -2.0884 H   0  0  0  0  0  0  0  0  0  0  0  0
    2.2654    1.4998   -2.5562 H   0  0  0  0  0  0  0  0  0  0  0  0
    3.4999    2.0214   -1.4013 H   0  0  0  0  0  0  0  0  0  0  0  0
    0.4760    0.2478    2.4544 H   0  0  0  0  0  0  0  0  0  0  0  0
    0.1141   -3.0008   -1.4108 H   0  0  0  0  0  0  0  0  0  0  0  0
    1.0057    3.3547   -1.3578 H   0  0  0  0  0  0  0  0  0  0  0  0
   -0.8571    2.2831    2.3418 H   0  0  0  0  0  0  0  0  0  0  0  0
   -2.0683   -3.2376   -0.2367 H   0  0  0  0  0  0  0  0  0  0  0  0
   -2.0690   -2.6936   -1.8993 H   0  0  0  0  0  0  0  0  0  0  0  0
   -0.6173    3.8454    0.4330 H   0  0  0  0  0  0  0  0  0  0  0  0
   -3.5265   -1.8907    1.1804 H   0  0  0  0  0  0  0  0  0  0  0  0
   -1.6620    0.0574   -2.1465 H   0  0  0  0  0  0  0  0  0  0  0  0
   -4.2668    2.0657    0.3248 H   0  0  0  0  0  0  0  0  0  0  0  0
  1  9  1  0  0  0  0
  1 16  1  0  0  0  0
  1 34  1  0  0  0  0
  2 19  2  0  0  0  0
  2 21  1  0  0  0  0
  3 20  1  0  0  0  0
  3 21  2  0  0  0  0
  4  5  1  0  0  0  0
  4  6  1  0  0  0  0
  4  7  1  0  0  0  0
  4  8  1  0  0  0  0
  5  6  1  0  0  0  0
  5  9  1  0  0  0  0
  5 22  1  0  0  0  0
  6 23  1  0  0  0  0
  6 24  1  0  0  0  0
  7 10  1  0  0  0  0
  7 25  1  0  0  0  0
  7 26  1  0  0  0  0
  8 11  1  0  0  0  0
  8 13  2  0  0  0  0
  9 27  1  0  0  0  0
  9 28  1  0  0  0  0
 10 12  1  0  0  0  0
 10 29  1  0  0  0  0
 10 30  1  0  0  0  0
 11 12  1  0  0  0  0
 11 14  2  0  0  0  0
 12 31  1  0  0  0  0
 12 32  1  0  0  0  0
 13 15  1  0  0  0  0
 13 33  1  0  0  0  0
 14 17  1  0  0  0  0
 14 35  1  0  0  0  0
 15 17  2  0  0  0  0
 15 36  1  0  0  0  0
 16 18  1  0  0  0  0
 16 37  1  0  0  0  0
 16 38  1  0  0  0  0
 17 39  1  0  0  0  0
 18 19  1  0  0  0  0
 18 20  2  0  0  0  0
 19 40  1  0  0  0  0
 20 41  1  0  0  0  0
 21 42  1  0  0  0  0
M  END
> <PUBCHEM_COMPOUND_CID>
102553073

> <PUBCHEM_CONFORMER_RMSD>
0.8

> <PUBCHEM_CONFORMER_DIVERSEORDER>
3
24
144
38
76
129
50
34
77
135
94
78
116
75
157
29
112
21
22
60
152
122
84
30
156
5
63
70
89
98
138
119
110
2
137
149
44
12
90
125
83
96
13
80
54
71
41
126
15
85
42
40
27
121
53
127
81
61
105
147
23
100
28
155
141
117
4
153
131
19
128
9
43
124
97
39
108
36
16
148
18
134
45
87
123
103
143
151
64
120
133
32
14
11
17
31
62
58
150
56
35
8
130
20
145
1
7
68
6
104
10
93
140
142
73
74
111
146
99
46
136
55
25
91
113
33
37
69
59
102
154
101
26
114
52
106
107
109
48
139
132
72
95
65
92
66
115
67
86
47
49
118
51
79
57
88
82

> <PUBCHEM_MMFF94_PARTIAL_CHARGES>
31
1 -0.9
11 -0.14
12 0.14
13 -0.15
14 -0.15
15 -0.15
16 0.41
17 -0.15
18 -0.14
19 0.16
2 -0.62
20 0.16
21 0.47
22 0.1
23 0.1
24 0.1
3 -0.62
33 0.15
34 0.36
35 0.15
36 0.15
39 0.15
4 -0.06
40 0.15
41 0.15
42 0.15
5 -0.19
6 -0.2
7 0.09
8 -0.03
9 0.37

> <PUBCHEM_EFFECTIVE_ROTOR_COUNT>
5

> <PUBCHEM_PHARMACOPHORE_FEATURES>
7
1 1 cation
1 1 donor
1 2 acceptor
3 2 3 21 cation
6 2 3 18 19 20 21 rings
6 4 7 8 10 11 12 rings
6 8 11 13 14 15 17 rings

> <PUBCHEM_HEAVY_ATOM_COUNT>
21

> <PUBCHEM_ATOM_DEF_STEREO_COUNT>
0

> <PUBCHEM_ATOM_UDEF_STEREO_COUNT>
2

> <PUBCHEM_BOND_DEF_STEREO_COUNT>
0

> <PUBCHEM_BOND_UDEF_STEREO_COUNT>
0

> <PUBCHEM_ISOTOPIC_ATOM_COUNT>
0

> <PUBCHEM_COMPONENT_COUNT>
1

> <PUBCHEM_CACTVS_TAUTO_COUNT>
7

> <PUBCHEM_CONFORMER_ID>
061CD5F100000003

> <PUBCHEM_MMFF94_ENERGY>
51.8834

> <PUBCHEM_FEATURE_SELFOVERLAP>
35.54

> <PUBCHEM_SHAPE_FINGERPRINT>
10366900 7 17968100884304689483
104564 63 18055633910733728657
10759866 29 18041849389565260310
12035759 4 18263097526306802774
12156800 1 10223889345951700363
12553582 1 18340481171364340825
12596599 1 17203027635165566103
12633257 1 18261119539311547651
12654903 92 17845940748327176982
128993 33 18192712460920896565
13132413 78 18195504099685306816
13464514 151 17979642556687698252
14251745 187 17619631727483508972
14386348 128 18263923409509443031
14713325 29 16742572227514566916
16752209 62 17986391092507368369
16945 1 18198606766632187058
17093844 170 17183042662489979789
18981168 100 17679841959098925919
20233049 118 18413384332877909078
20465049 17 18267043789239270055
20600515 1 18060129955930298792
22802520 49 17545894079630626102
23559900 14 18202565112352188800
238 59 18120924264380345215
2637199 183 18189069714310372966
2818148 4 18265621064011063231
3027735 51 16768214646565522014
35225 105 15909394837082634801
484985 159 14356452203193099283
549884 4 18197498643384063798
6287921 2 17390527524770167925
7226269 152 18411417350100607720
7832392 63 18342734160688924710

> <PUBCHEM_SHAPE_MULTIPOLES>
417.23
6.06
3.19
1.59
3.5
0.42
-0.08
-0.64
1.03
-0.13
-0.24
-0.68
0.12
-0.87

> <PUBCHEM_SHAPE_SELFOVERLAP>
897.32

> <PUBCHEM_SHAPE_VOLUME>
225.6

> <PUBCHEM_COORDINATE_TYPE>
2
5
10

$$$$
