101297603
  -OEChem-02172602533D

 52 58  0     1  0  0  0  0  0999 V2000
   -0.5205   -2.0622    1.7148 O   0  0  0  0  0  0  0  0  0  0  0  0
    2.3738   -1.1381    2.5535 O   0  0  0  0  0  0  0  0  0  0  0  0
   -2.7822   -2.4065   -0.2546 O   0  0  0  0  0  0  0  0  0  0  0  0
   -4.2331   -0.7267    0.2494 O   0  0  0  0  0  0  0  0  0  0  0  0
    2.5430    1.4750   -0.2018 N   0  0  1  0  0  0  0  0  0  0  0  0
   -1.9614   -0.2775   -0.0401 N   0  0  0  0  0  0  0  0  0  0  0  0
    0.3399    0.5790    0.0234 C   0  0  1  0  0  0  0  0  0  0  0  0
    1.9585   -0.9431   -0.9728 C   0  0  1  0  0  0  0  0  0  0  0  0
    1.5839    0.5890   -0.8775 C   0  0  2  0  0  0  0  0  0  0  0  0
   -0.5650   -0.6929   -0.3321 C   0  0  1  0  0  0  0  0  0  0  0  0
    1.5325   -1.7128    0.3694 C   0  0  2  0  0  0  0  0  0  0  0  0
    1.0745    0.5528    1.3974 C   0  0  1  0  0  0  0  0  0  0  0  0
   -0.0039   -1.9290    0.3965 C   0  0  1  0  0  0  0  0  0  0  0  0
    1.0538   -1.4853   -2.1135 C   0  0  0  0  0  0  0  0  0  0  0  0
   -0.3973   -1.0284   -1.8520 C   0  0  0  0  0  0  0  0  0  0  0  0
    1.7410   -0.8052    1.5569 C   0  0  0  0  0  0  0  0  0  0  0  0
    2.2378    1.5242    1.2296 C   0  0  0  0  0  0  0  0  0  0  0  0
    3.4410   -1.1363   -1.3066 C   0  0  0  0  0  0  0  0  0  0  0  0
   -0.6860    1.6734   -0.0636 C   0  0  0  0  0  0  0  0  0  0  0  0
    3.9361    1.2099   -0.5370 C   0  0  0  0  0  0  0  0  0  0  0  0
    4.3420   -0.2605   -0.4409 C   0  0  0  0  0  0  0  0  0  0  0  0
   -1.9859    1.1430   -0.0022 C   0  0  0  0  0  0  0  0  0  0  0  0
   -0.4863    3.0460   -0.1404 C   0  0  0  0  0  0  0  0  0  0  0  0
   -3.0876   -1.0963    0.0051 C   0  0  0  0  0  0  0  0  0  0  0  0
   -3.0917    1.9842    0.0250 C   0  0  0  0  0  0  0  0  0  0  0  0
   -1.5951    3.8922   -0.1248 C   0  0  0  0  0  0  0  0  0  0  0  0
   -2.8876    3.3651   -0.0339 C   0  0  0  0  0  0  0  0  0  0  0  0
   -3.8741   -3.3329   -0.2270 C   0  0  0  0  0  0  0  0  0  0  0  0
    1.3863    1.0101   -1.8713 H   0  0  0  0  0  0  0  0  0  0  0  0
    2.0698   -2.6551    0.5129 H   0  0  0  0  0  0  0  0  0  0  0  0
    0.4305    0.7618    2.2561 H   0  0  0  0  0  0  0  0  0  0  0  0
   -0.2601   -2.8556   -0.1309 H   0  0  0  0  0  0  0  0  0  0  0  0
    1.1099   -2.5802   -2.1539 H   0  0  0  0  0  0  0  0  0  0  0  0
    1.3759   -1.1182   -3.0955 H   0  0  0  0  0  0  0  0  0  0  0  0
   -0.6339   -0.1507   -2.4672 H   0  0  0  0  0  0  0  0  0  0  0  0
   -1.0902   -1.8142   -2.1747 H   0  0  0  0  0  0  0  0  0  0  0  0
    1.9281    2.5410    1.4923 H   0  0  0  0  0  0  0  0  0  0  0  0
    3.0972    1.2789    1.8648 H   0  0  0  0  0  0  0  0  0  0  0  0
    3.6201   -0.8762   -2.3582 H   0  0  0  0  0  0  0  0  0  0  0  0
    3.7276   -2.1888   -1.1968 H   0  0  0  0  0  0  0  0  0  0  0  0
    4.1066    1.5512   -1.5663 H   0  0  0  0  0  0  0  0  0  0  0  0
    4.6010    1.8214    0.0852 H   0  0  0  0  0  0  0  0  0  0  0  0
    4.3202   -0.5982    0.6003 H   0  0  0  0  0  0  0  0  0  0  0  0
    5.3793   -0.3697   -0.7788 H   0  0  0  0  0  0  0  0  0  0  0  0
   -0.0883   -2.8340    2.1188 H   0  0  0  0  0  0  0  0  0  0  0  0
    0.5080    3.4736   -0.2017 H   0  0  0  0  0  0  0  0  0  0  0  0
   -4.1092    1.6160    0.0654 H   0  0  0  0  0  0  0  0  0  0  0  0
   -1.4545    4.9682   -0.1781 H   0  0  0  0  0  0  0  0  0  0  0  0
   -3.7419    4.0368   -0.0217 H   0  0  0  0  0  0  0  0  0  0  0  0
   -3.4799   -4.3277   -0.4506 H   0  0  0  0  0  0  0  0  0  0  0  0
   -4.6137   -3.0686   -0.9886 H   0  0  0  0  0  0  0  0  0  0  0  0
   -4.3295   -3.3509    0.7676 H   0  0  0  0  0  0  0  0  0  0  0  0
  1 13  1  0  0  0  0
  1 45  1  0  0  0  0
  2 16  2  0  0  0  0
  3 24  1  0  0  0  0
  3 28  1  0  0  0  0
  4 24  2  0  0  0  0
  5  9  1  0  0  0  0
  5 17  1  0  0  0  0
  5 20  1  0  0  0  0
  6 10  1  0  0  0  0
  6 22  1  0  0  0  0
  6 24  1  0  0  0  0
  7  9  1  0  0  0  0
  7 10  1  0  0  0  0
  7 12  1  0  0  0  0
  7 19  1  0  0  0  0
  8  9  1  0  0  0  0
  8 11  1  0  0  0  0
  8 14  1  0  0  0  0
  8 18  1  0  0  0  0
  9 29  1  0  0  0  0
 10 13  1  0  0  0  0
 10 15  1  0  0  0  0
 11 13  1  0  0  0  0
 11 16  1  0  0  0  0
 11 30  1  0  0  0  0
 12 16  1  0  0  0  0
 12 17  1  0  0  0  0
 12 31  1  0  0  0  0
 13 32  1  0  0  0  0
 14 15  1  0  0  0  0
 14 33  1  0  0  0  0
 14 34  1  0  0  0  0
 15 35  1  0  0  0  0
 15 36  1  0  0  0  0
 17 37  1  0  0  0  0
 17 38  1  0  0  0  0
 18 21  1  0  0  0  0
 18 39  1  0  0  0  0
 18 40  1  0  0  0  0
 19 22  1  0  0  0  0
 19 23  2  0  0  0  0
 20 21  1  0  0  0  0
 20 41  1  0  0  0  0
 20 42  1  0  0  0  0
 21 43  1  0  0  0  0
 21 44  1  0  0  0  0
 22 25  2  0  0  0  0
 23 26  1  0  0  0  0
 23 46  1  0  0  0  0
 25 27  1  0  0  0  0
 25 47  1  0  0  0  0
 26 27  2  0  0  0  0
 26 48  1  0  0  0  0
 27 49  1  0  0  0  0
 28 50  1  0  0  0  0
 28 51  1  0  0  0  0
 28 52  1  0  0  0  0
M  END
> <PUBCHEM_COMPOUND_CID>
101297603

> <PUBCHEM_CONFORMER_RMSD>
0.8

> <PUBCHEM_CONFORMER_DIVERSEORDER>
1
2

> <PUBCHEM_MMFF94_PARTIAL_CHARGES>
28
1 -0.68
10 0.3
11 0.06
12 0.06
13 0.28
16 0.45
17 0.27
19 -0.14
2 -0.57
20 0.27
22 0.12
23 -0.15
24 0.78
25 -0.15
26 -0.15
27 -0.15
28 0.28
3 -0.43
4 -0.57
45 0.4
46 0.15
47 0.15
48 0.15
49 0.15
5 -0.81
6 -0.48
7 0.14
9 0.27

> <PUBCHEM_EFFECTIVE_ROTOR_COUNT>
3.6

> <PUBCHEM_PHARMACOPHORE_FEATURES>
10
1 1 acceptor
1 1 donor
1 2 acceptor
1 4 acceptor
1 5 cation
10 5 7 8 9 10 11 12 13 16 17 rings
5 6 7 10 19 22 rings
6 19 22 23 25 26 27 rings
6 5 8 9 18 20 21 rings
8 7 8 9 10 11 13 14 15 rings

> <PUBCHEM_HEAVY_ATOM_COUNT>
28

> <PUBCHEM_ATOM_DEF_STEREO_COUNT>
7

> <PUBCHEM_ATOM_UDEF_STEREO_COUNT>
0

> <PUBCHEM_BOND_DEF_STEREO_COUNT>
0

> <PUBCHEM_BOND_UDEF_STEREO_COUNT>
0

> <PUBCHEM_ISOTOPIC_ATOM_COUNT>
0

> <PUBCHEM_COMPONENT_COUNT>
1

> <PUBCHEM_CACTVS_TAUTO_COUNT>
3

> <PUBCHEM_CONFORMER_ID>
0609ADC300000001

> <PUBCHEM_MMFF94_ENERGY>
132.5078

> <PUBCHEM_FEATURE_SELFOVERLAP>
53.109

> <PUBCHEM_SHAPE_FINGERPRINT>
10369192 42 16555071319950521912
10863032 1 18265900164012764510
10948715 1 18264215712273040060
10967382 1 17690563404445268133
1100329 8 17688030808017241826
11578080 2 16988261158361813554
11640471 11 17605857823009726220
12293681 4 18190468357483163418
12403259 226 18272373117677395956
12553582 1 18337666525193284211
12716301 132 18198051482878845562
12788726 201 18334575729092924673
13140716 1 18337381635264094289
13224815 77 18410571752106392137
138480 1 16104455742118538837
13965767 371 17317894546690364652
14223421 5 18342169003317258233
14251751 93 18411139091510979044
144361 1 18202289104182959346
14713325 29 18200892694335225060
14787075 74 17827360187122935940
14790565 3 17186448378636152917
14955137 171 17621883514259201049
16945 1 18194674869837686880
17492 54 17758128376723792789
18981168 100 16987977458402217048
20691752 17 17894920589682928925
20905425 154 18413390946847937780
21421861 104 18188493471580759923
22182313 1 17846774092758344364
2334 1 18410006650379636801
23419403 2 17275097289572095754
23493267 7 18268711619186559452
23558518 356 18334584567867152860
23559900 14 18056201263894084262
2748010 2 18272641359738756357
4340502 62 16445346398754349033
7097593 13 17682661935714579610

> <PUBCHEM_SHAPE_MULTIPOLES>
542.79
6.13
3.79
1.54
0.23
1.5
-0.35
-0.62
0.54
4.4
0.15
-1.26
-0.75
0.2

> <PUBCHEM_SHAPE_SELFOVERLAP>
1254.672

> <PUBCHEM_SHAPE_VOLUME>
275

> <PUBCHEM_COORDINATE_TYPE>
2
5
10

$$$$
