10183146
  -OEChem-02172602533D

 49 52  0     0  0  0  0  0  0999 V2000
    5.5092    1.1586    2.6655 Cl  0  0  0  0  0  0  0  0  0  0  0  0
    9.2291   -1.5823   -0.0910 Cl  0  0  0  0  0  0  0  0  0  0  0  0
   -0.0952   -2.9241   -0.2735 O   0  0  0  0  0  0  0  0  0  0  0  0
    3.7403    2.1337    0.3077 O   0  0  0  0  0  0  0  0  0  0  0  0
    1.9360   -2.4093   -1.1540 O   0  0  0  0  0  0  0  0  0  0  0  0
    2.7587    0.0458   -0.1422 N   0  0  0  0  0  0  0  0  0  0  0  0
   -1.3181    0.9785   -0.3529 C   0  0  0  0  0  0  0  0  0  0  0  0
   -2.7251    1.3094   -0.4237 C   0  0  0  0  0  0  0  0  0  0  0  0
   -5.0396    0.6842   -0.1258 C   0  0  0  0  0  0  0  0  0  0  0  0
   -3.6835    0.3644   -0.0581 C   0  0  0  0  0  0  0  0  0  0  0  0
    1.3946    0.3417   -0.2155 C   0  0  0  0  0  0  0  0  0  0  0  0
   -0.9005   -0.3389   -0.5421 C   0  0  0  0  0  0  0  0  0  0  0  0
    0.4559   -0.6573   -0.4733 C   0  0  0  0  0  0  0  0  0  0  0  0
   -0.3793    1.9773   -0.0950 C   0  0  0  0  0  0  0  0  0  0  0  0
   -3.1226    2.5743   -0.8567 C   0  0  0  0  0  0  0  0  0  0  0  0
    0.9770    1.6590   -0.0263 C   0  0  0  0  0  0  0  0  0  0  0  0
   -6.0346   -0.2958    0.2517 C   0  0  0  0  0  0  0  0  0  0  0  0
   -5.4371    1.9491   -0.5590 C   0  0  0  0  0  0  0  0  0  0  0  0
   -4.4785    2.8941   -0.9245 C   0  0  0  0  0  0  0  0  0  0  0  0
   -6.4794   -0.3658    1.5719 C   0  0  0  0  0  0  0  0  0  0  0  0
   -6.5505   -1.1697   -0.7053 C   0  0  0  0  0  0  0  0  0  0  0  0
    3.8176    0.9266    0.1063 C   0  0  0  0  0  0  0  0  0  0  0  0
    0.8595   -2.0432   -0.6760 C   0  0  0  0  0  0  0  0  0  0  0  0
    5.1711    0.3121    0.0941 C   0  0  0  0  0  0  0  0  0  0  0  0
   -7.4403   -1.3094    1.9350 C   0  0  0  0  0  0  0  0  0  0  0  0
   -7.5115   -2.1133   -0.3420 C   0  0  0  0  0  0  0  0  0  0  0  0
   -7.9564   -2.1832    0.9781 C   0  0  0  0  0  0  0  0  0  0  0  0
    5.9899    0.3755    1.2031 C   0  0  0  0  0  0  0  0  0  0  0  0
    5.5633   -0.3169   -1.0719 C   0  0  0  0  0  0  0  0  0  0  0  0
    7.2528   -0.2139    1.1456 C   0  0  0  0  0  0  0  0  0  0  0  0
    6.8262   -0.9062   -1.1295 C   0  0  0  0  0  0  0  0  0  0  0  0
    7.6709   -0.8547   -0.0207 C   0  0  0  0  0  0  0  0  0  0  0  0
   -3.4037   -0.6186    0.3148 H   0  0  0  0  0  0  0  0  0  0  0  0
   -1.6158   -1.1174   -0.7942 H   0  0  0  0  0  0  0  0  0  0  0  0
   -0.6613    3.0104    0.0898 H   0  0  0  0  0  0  0  0  0  0  0  0
   -2.4144    3.3318   -1.1809 H   0  0  0  0  0  0  0  0  0  0  0  0
    1.6332    2.4904    0.1850 H   0  0  0  0  0  0  0  0  0  0  0  0
   -6.4900    2.2143   -0.6195 H   0  0  0  0  0  0  0  0  0  0  0  0
   -4.7887    3.8764   -1.2687 H   0  0  0  0  0  0  0  0  0  0  0  0
    3.0088   -0.9298   -0.2811 H   0  0  0  0  0  0  0  0  0  0  0  0
   -6.0877    0.3079    2.3304 H   0  0  0  0  0  0  0  0  0  0  0  0
   -6.2149   -1.1286   -1.7389 H   0  0  0  0  0  0  0  0  0  0  0  0
   -7.7867   -1.3640    2.9629 H   0  0  0  0  0  0  0  0  0  0  0  0
   -7.9134   -2.7937   -1.0871 H   0  0  0  0  0  0  0  0  0  0  0  0
   -8.7046   -2.9179    1.2608 H   0  0  0  0  0  0  0  0  0  0  0  0
    4.9181   -0.3584   -1.9449 H   0  0  0  0  0  0  0  0  0  0  0  0
    7.9131   -0.1751    2.0094 H   0  0  0  0  0  0  0  0  0  0  0  0
    7.1393   -1.4008   -2.0454 H   0  0  0  0  0  0  0  0  0  0  0  0
    0.1838   -3.8542   -0.4129 H   0  0  0  0  0  0  0  0  0  0  0  0
  1 28  1  0  0  0  0
  2 32  1  0  0  0  0
  3 23  1  0  0  0  0
  3 49  1  0  0  0  0
  4 22  2  0  0  0  0
  5 23  2  0  0  0  0
  6 11  1  0  0  0  0
  6 22  1  0  0  0  0
  6 40  1  0  0  0  0
  7  8  1  0  0  0  0
  7 12  2  0  0  0  0
  7 14  1  0  0  0  0
  8 10  1  0  0  0  0
  8 15  2  0  0  0  0
  9 10  2  0  0  0  0
  9 17  1  0  0  0  0
  9 18  1  0  0  0  0
 10 33  1  0  0  0  0
 11 13  2  0  0  0  0
 11 16  1  0  0  0  0
 12 13  1  0  0  0  0
 12 34  1  0  0  0  0
 13 23  1  0  0  0  0
 14 16  2  0  0  0  0
 14 35  1  0  0  0  0
 15 19  1  0  0  0  0
 15 36  1  0  0  0  0
 16 37  1  0  0  0  0
 17 20  2  0  0  0  0
 17 21  1  0  0  0  0
 18 19  2  0  0  0  0
 18 38  1  0  0  0  0
 19 39  1  0  0  0  0
 20 25  1  0  0  0  0
 20 41  1  0  0  0  0
 21 26  2  0  0  0  0
 21 42  1  0  0  0  0
 22 24  1  0  0  0  0
 24 28  2  0  0  0  0
 24 29  1  0  0  0  0
 25 27  2  0  0  0  0
 25 43  1  0  0  0  0
 26 27  1  0  0  0  0
 26 44  1  0  0  0  0
 27 45  1  0  0  0  0
 28 30  1  0  0  0  0
 29 31  2  0  0  0  0
 29 46  1  0  0  0  0
 30 32  2  0  0  0  0
 30 47  1  0  0  0  0
 31 32  1  0  0  0  0
 31 48  1  0  0  0  0
M  END
> <PUBCHEM_COMPOUND_CID>
10183146

> <PUBCHEM_CONFORMER_RMSD>
0.8

> <PUBCHEM_CONFORMER_DIVERSEORDER>
1
13
24
12
18
11
14
7
17
2
23
8
19
20
4
21
3
5
9
22
15
10
16
6

> <PUBCHEM_MMFF94_PARTIAL_CHARGES>
45
1 -0.18
10 -0.15
11 0.12
12 -0.15
13 0.09
14 -0.15
15 -0.15
16 -0.15
18 -0.15
19 -0.15
2 -0.18
20 -0.15
21 -0.15
22 0.54
23 0.63
24 0.09
25 -0.15
26 -0.15
27 -0.15
28 0.18
29 -0.15
3 -0.65
30 -0.15
31 -0.15
32 0.18
33 0.15
34 0.15
35 0.15
36 0.15
37 0.15
38 0.15
39 0.15
4 -0.57
40 0.37
41 0.15
42 0.15
43 0.15
44 0.15
45 0.15
46 0.15
47 0.15
48 0.15
49 0.5
5 -0.57
6 -0.55

> <PUBCHEM_EFFECTIVE_ROTOR_COUNT>
6

> <PUBCHEM_PHARMACOPHORE_FEATURES>
9
1 3 acceptor
1 4 acceptor
1 5 acceptor
1 6 donor
3 3 5 23 anion
6 17 20 21 25 26 27 rings
6 24 28 29 30 31 32 rings
6 7 11 12 13 14 16 rings
6 8 9 10 15 18 19 rings

> <PUBCHEM_HEAVY_ATOM_COUNT>
32

> <PUBCHEM_ATOM_DEF_STEREO_COUNT>
0

> <PUBCHEM_ATOM_UDEF_STEREO_COUNT>
0

> <PUBCHEM_BOND_DEF_STEREO_COUNT>
0

> <PUBCHEM_BOND_UDEF_STEREO_COUNT>
0

> <PUBCHEM_ISOTOPIC_ATOM_COUNT>
0

> <PUBCHEM_COMPONENT_COUNT>
1

> <PUBCHEM_CACTVS_TAUTO_COUNT>
3

> <PUBCHEM_CONFORMER_ID>
009B61EA00000001

> <PUBCHEM_MMFF94_ENERGY>
118.1571

> <PUBCHEM_FEATURE_SELFOVERLAP>
45.73

> <PUBCHEM_SHAPE_FINGERPRINT>
10 15 18337668715115155768
10533779 47 17561089073462578134
11135926 11 16774076241683949319
11456790 92 17274819122168609610
11578821 258 10231452131138007450
11646440 116 17917992776372534016
11963148 33 18334006181595781779
12089408 11 17603587396998914340
12106331 60 18261380136046088725
12166972 35 18186524323407270372
12559416 138 18339913927367797063
12717326 120 17823715228794782739
13782708 43 18334573538327449793
14028597 1 17060348387468836426
14849402 71 17059208323076551593
15064981 113 14201660006457333179
15183329 4 15647050460741573088
15328829 1 16515407399629176218
15461852 350 15719111362278839047
1577012 14 16950561039070618432
16067689 302 18129951074788615478
16992727 255 12103845669878545690
18608769 82 18413669119438032942
19611394 137 18261118516766303105
20105231 36 18273219677823907718
21267235 1 18409169913377641772
21781051 124 18335996328291772622
22149856 69 18272384065839463601
23569917 315 18411707569278091398
23569943 247 17831581973395132026
23576562 1 10881983712980185619
249057 25 17022914431727226724
2747138 104 18411419531353261185
3178227 256 18202286913549321384
3383291 50 18335418001859780947
4073 2 18263647260714328445
4093350 32 16056890095969926174
4339292 15 18410004456067963423
44802255 64 13190339089510733785
5104073 3 18339645508668445257
563151 248 17775282806916550335
58083652 198 16702007673994732161
636775 8 18113908164455567418
6376802 90 17899128322531689957
68570916 9 16486400135304304125
9953998 17 18060424621405735491

> <PUBCHEM_SHAPE_MULTIPOLES>
639.7
26.97
2.75
1.42
10.2
0.11
0.92
-13.79
6.94
-3.6
-0.56
0.57
-0.04
2.97

> <PUBCHEM_SHAPE_SELFOVERLAP>
1404.765

> <PUBCHEM_SHAPE_VOLUME>
344.9

> <PUBCHEM_COORDINATE_TYPE>
2
5
10

$$$$
