11130635
  -OEChem-02172602483D

 50 51  0     1  0  0  0  0  0999 V2000
   -2.2913    0.4653    0.0798 O   0  0  0  0  0  0  0  0  0  0  0  0
    2.6235    0.8163   -0.9058 O   0  0  0  0  0  0  0  0  0  0  0  0
    1.9020   -3.8181   -0.4646 O   0  0  0  0  0  0  0  0  0  0  0  0
   -2.6359   -1.5632   -0.9704 O   0  0  0  0  0  0  0  0  0  0  0  0
   -0.4938   -1.0476    0.0292 C   0  0  1  0  0  0  0  0  0  0  0  0
   -0.0991   -2.4703   -0.3876 C   0  0  2  0  0  0  0  0  0  0  0  0
   -0.3709   -1.0562    1.5638 C   0  0  0  0  0  0  0  0  0  0  0  0
   -0.7060   -3.3327    0.7215 C   0  0  0  0  0  0  0  0  0  0  0  0
   -0.5221   -2.5169    1.9972 C   0  0  0  0  0  0  0  0  0  0  0  0
    0.3487    0.0416   -0.6457 C   0  0  0  0  0  0  0  0  0  0  0  0
    1.4079   -2.6905   -0.4831 C   0  0  0  0  0  0  0  0  0  0  0  0
   -1.9294   -0.7743   -0.3575 C   0  0  0  0  0  0  0  0  0  0  0  0
    1.8072   -0.2844   -0.7322 C   0  0  0  0  0  0  0  0  0  0  0  0
    2.3044   -1.5234   -0.6484 C   0  0  0  0  0  0  0  0  0  0  0  0
   -3.6348    0.8556   -0.2214 C   0  0  0  0  0  0  0  0  0  0  0  0
    3.0226    1.3451    0.3431 C   0  0  0  0  0  0  0  0  0  0  0  0
   -3.9046    2.2606    0.3245 C   0  0  0  0  0  0  0  0  0  0  0  0
    3.9118    2.5732    0.1294 C   0  0  0  0  0  0  0  0  0  0  0  0
   -2.9699    3.2935   -0.3088 C   0  0  0  0  0  0  0  0  0  0  0  0
   -5.3625    2.6514    0.0925 C   0  0  0  0  0  0  0  0  0  0  0  0
    3.1659    3.6771   -0.6234 C   0  0  0  0  0  0  0  0  0  0  0  0
    4.4263    3.0979    1.4679 C   0  0  0  0  0  0  0  0  0  0  0  0
   -0.5059   -2.7541   -1.3660 H   0  0  0  0  0  0  0  0  0  0  0  0
    0.6096   -0.6891    1.8904 H   0  0  0  0  0  0  0  0  0  0  0  0
   -1.1188   -0.4346    2.0681 H   0  0  0  0  0  0  0  0  0  0  0  0
   -1.7750   -3.4952    0.5411 H   0  0  0  0  0  0  0  0  0  0  0  0
   -0.2446   -4.3209    0.8148 H   0  0  0  0  0  0  0  0  0  0  0  0
    0.3791   -2.8403    2.5311 H   0  0  0  0  0  0  0  0  0  0  0  0
   -1.3698   -2.6519    2.6768 H   0  0  0  0  0  0  0  0  0  0  0  0
   -0.0072    0.2201   -1.6701 H   0  0  0  0  0  0  0  0  0  0  0  0
    0.2116    0.9910   -0.1122 H   0  0  0  0  0  0  0  0  0  0  0  0
    3.3699   -1.7124   -0.7163 H   0  0  0  0  0  0  0  0  0  0  0  0
   -4.3230    0.1391    0.2431 H   0  0  0  0  0  0  0  0  0  0  0  0
   -3.7819    0.8344   -1.3083 H   0  0  0  0  0  0  0  0  0  0  0  0
    2.1480    1.6270    0.9439 H   0  0  0  0  0  0  0  0  0  0  0  0
    3.5887    0.5881    0.9022 H   0  0  0  0  0  0  0  0  0  0  0  0
   -3.7071    2.2585    1.4040 H   0  0  0  0  0  0  0  0  0  0  0  0
    4.7708    2.2789   -0.4871 H   0  0  0  0  0  0  0  0  0  0  0  0
   -3.1727    4.2942    0.0875 H   0  0  0  0  0  0  0  0  0  0  0  0
   -3.0960    3.3283   -1.3963 H   0  0  0  0  0  0  0  0  0  0  0  0
   -1.9212    3.0609   -0.0967 H   0  0  0  0  0  0  0  0  0  0  0  0
   -6.0380    1.9383    0.5767 H   0  0  0  0  0  0  0  0  0  0  0  0
   -5.5704    3.6430    0.5084 H   0  0  0  0  0  0  0  0  0  0  0  0
   -5.6033    2.6750   -0.9758 H   0  0  0  0  0  0  0  0  0  0  0  0
    2.8476    3.3357   -1.6137 H   0  0  0  0  0  0  0  0  0  0  0  0
    2.2750    3.9994   -0.0736 H   0  0  0  0  0  0  0  0  0  0  0  0
    3.8097    4.5515   -0.7668 H   0  0  0  0  0  0  0  0  0  0  0  0
    3.6014    3.4133    2.1159 H   0  0  0  0  0  0  0  0  0  0  0  0
    4.9958    2.3257    1.9958 H   0  0  0  0  0  0  0  0  0  0  0  0
    5.0883    3.9578    1.3202 H   0  0  0  0  0  0  0  0  0  0  0  0
  1 12  1  0  0  0  0
  1 15  1  0  0  0  0
  2 13  1  0  0  0  0
  2 16  1  0  0  0  0
  3 11  2  0  0  0  0
  4 12  2  0  0  0  0
  5  6  1  0  0  0  0
  5  7  1  0  0  0  0
  5 10  1  0  0  0  0
  5 12  1  0  0  0  0
  6  8  1  0  0  0  0
  6 11  1  0  0  0  0
  6 23  1  0  0  0  0
  7  9  1  0  0  0  0
  7 24  1  0  0  0  0
  7 25  1  0  0  0  0
  8  9  1  0  0  0  0
  8 26  1  0  0  0  0
  8 27  1  0  0  0  0
  9 28  1  0  0  0  0
  9 29  1  0  0  0  0
 10 13  1  0  0  0  0
 10 30  1  0  0  0  0
 10 31  1  0  0  0  0
 11 14  1  0  0  0  0
 13 14  2  0  0  0  0
 14 32  1  0  0  0  0
 15 17  1  0  0  0  0
 15 33  1  0  0  0  0
 15 34  1  0  0  0  0
 16 18  1  0  0  0  0
 16 35  1  0  0  0  0
 16 36  1  0  0  0  0
 17 19  1  0  0  0  0
 17 20  1  0  0  0  0
 17 37  1  0  0  0  0
 18 21  1  0  0  0  0
 18 22  1  0  0  0  0
 18 38  1  0  0  0  0
 19 39  1  0  0  0  0
 19 40  1  0  0  0  0
 19 41  1  0  0  0  0
 20 42  1  0  0  0  0
 20 43  1  0  0  0  0
 20 44  1  0  0  0  0
 21 45  1  0  0  0  0
 21 46  1  0  0  0  0
 21 47  1  0  0  0  0
 22 48  1  0  0  0  0
 22 49  1  0  0  0  0
 22 50  1  0  0  0  0
M  END
> <PUBCHEM_COMPOUND_CID>
11130635

> <PUBCHEM_CONFORMER_RMSD>
0.8

> <PUBCHEM_CONFORMER_DIVERSEORDER>
2
181
119
190
141
43
100
125
48
121
118
17
192
146
63
74
35
179
13
69
200
97
93
98
160
205
112
7
138
170
53
137
111
207
105
184
131
109
168
27
142
132
102
153
169
162
201
21
164
116
59
51
78
65
158
18
166
75
196
60
183
71
133
180
117
47
66
56
15
204
101
54
1
165
157
92
73
195
186
12
57
36
143
99
64
124
145
76
191
167
67
185
134
149
136
113
135
156
159
144
46
127
89
161
29
68
24
44
187
129
122
95
91
83
14
87
150
154
106
177
202
49
107
62
199
203
172
198
103
80
40
174
50
81
178
152
206
94
147
171
10
9
130
77
72
193
26
39
209
30
5
37
33
173
19
58
70
128
114
96
28
104
84
108
197
52
3
16
42
82
139
188
151
23
22
148
61
208
155
4
38
175
163
88
120
115
126
86
140
41
182
55
110
25
194
8
32
20
176
31
85
79
11
90
123
34
6
189
45

> <PUBCHEM_MMFF94_PARTIAL_CHARGES>
14
1 -0.43
10 0.14
11 0.49
12 0.66
13 -0.06
14 -0.14
15 0.28
16 0.28
2 -0.36
3 -0.57
32 0.15
4 -0.57
5 0.06
6 0.06

> <PUBCHEM_EFFECTIVE_ROTOR_COUNT>
7.8

> <PUBCHEM_PHARMACOPHORE_FEATURES>
7
1 2 acceptor
1 3 acceptor
1 4 acceptor
3 17 19 20 hydrophobe
3 18 21 22 hydrophobe
5 5 6 7 8 9 rings
6 5 6 10 11 13 14 rings

> <PUBCHEM_HEAVY_ATOM_COUNT>
22

> <PUBCHEM_ATOM_DEF_STEREO_COUNT>
0

> <PUBCHEM_ATOM_UDEF_STEREO_COUNT>
2

> <PUBCHEM_BOND_DEF_STEREO_COUNT>
0

> <PUBCHEM_BOND_UDEF_STEREO_COUNT>
0

> <PUBCHEM_ISOTOPIC_ATOM_COUNT>
0

> <PUBCHEM_COMPONENT_COUNT>
1

> <PUBCHEM_CACTVS_TAUTO_COUNT>
5

> <PUBCHEM_CONFORMER_ID>
00A9D70B00000002

> <PUBCHEM_MMFF94_ENERGY>
45.3029

> <PUBCHEM_FEATURE_SELFOVERLAP>
35.727

> <PUBCHEM_SHAPE_FINGERPRINT>
11221954 11 18411144661893716188
12107183 9 18336248129756323176
12173636 292 18124590044816016748
12403260 363 18339346578596561662
12633257 1 17605532527215339768
12769317 202 18341041917910323217
12788726 201 17537730175661027282
13134695 92 17833271921864579431
13140716 1 18334574594957768587
13590594 115 17619360805135748392
138480 1 17906455428683767124
13955234 65 18120378657926540419
13965767 371 18187072941112470132
14466204 15 18047749296109031712
14955137 171 17901382290581153634
15295992 7 18188503379759101154
16945 1 18195533597046643535
17980427 23 18054477284926795138
17980427 26 18337658720699852174
18681886 176 17837483056210821715
21344244 78 17034429372740161667
21401589 2 18340491178759726881
23558518 356 18261115226710902347
23559900 14 18202283563970748078
2748010 2 18120395369407555302
474 4 18410854317851795857
57124632 79 18338227150868363064
5939293 188 17906168451916883607
84936 182 18342738481499676216
90316 7 17329998404780929346
9981440 41 18267859656773426930

> <PUBCHEM_SHAPE_MULTIPOLES>
429.27
7.88
5.59
1.23
3.15
0.55
-0.57
12.56
-0.52
-1.67
-0.5
-0.45
-0.43
1.04

> <PUBCHEM_SHAPE_SELFOVERLAP>
879.189

> <PUBCHEM_SHAPE_VOLUME>
249

> <PUBCHEM_COORDINATE_TYPE>
2
5
10

$$$$
