441014
  -OEChem-02172602443D

 45 46  0     1  0  0  0  0  0999 V2000
    0.1960   -0.7842    0.7357 O   0  0  0  0  0  0  0  0  0  0  0  0
   -1.3624    0.7546   -0.0687 O   0  0  0  0  0  0  0  0  0  0  0  0
    3.4432   -0.5311   -0.9905 O   0  0  0  0  0  0  0  0  0  0  0  0
    0.8641    1.9959    1.0127 O   0  0  0  0  0  0  0  0  0  0  0  0
   -1.8506   -2.7305    0.9138 O   0  0  0  0  0  0  0  0  0  0  0  0
   -4.5009   -1.5064    1.3116 O   0  0  0  0  0  0  0  0  0  0  0  0
   -4.9709    0.5530   -0.6618 O   0  0  0  0  0  0  0  0  0  0  0  0
    3.7219    2.4190    1.1835 O   0  0  0  0  0  0  0  0  0  0  0  0
    4.6969   -0.2057    0.9953 O   0  0  0  0  0  0  0  0  0  0  0  0
    2.8386   -3.0947   -1.7082 O   0  0  0  0  0  0  0  0  0  0  0  0
   -1.6414    2.9494   -1.7000 O   0  0  0  0  0  0  0  0  0  0  0  0
    1.2462   -0.1498    0.0098 C   0  0  1  0  0  0  0  0  0  0  0  0
    1.8339    0.9526    0.8929 C   0  0  1  0  0  0  0  0  0  0  0  0
   -1.0588   -0.6311    0.0730 C   0  0  2  0  0  0  0  0  0  0  0  0
    2.3176   -1.1759   -0.3836 C   0  0  1  0  0  0  0  0  0  0  0  0
   -2.1250   -1.3297    0.9168 C   0  0  1  0  0  0  0  0  0  0  0  0
   -3.5261   -1.0859    0.3558 C   0  0  2  0  0  0  0  0  0  0  0  0
   -3.7561    0.3976    0.0671 C   0  0  1  0  0  0  0  0  0  0  0  0
    3.1053    1.5222    0.2665 C   0  0  2  0  0  0  0  0  0  0  0  0
   -2.5987    0.9778   -0.7491 C   0  0  1  0  0  0  0  0  0  0  0  0
    4.0831    0.4158   -0.1324 C   0  0  2  0  0  0  0  0  0  0  0  0
    1.7921   -2.1956   -1.3905 C   0  0  0  0  0  0  0  0  0  0  0  0
   -2.7480    2.4827   -0.9499 C   0  0  0  0  0  0  0  0  0  0  0  0
    0.8749    0.3212   -0.9127 H   0  0  0  0  0  0  0  0  0  0  0  0
    2.0221    0.5819    1.9079 H   0  0  0  0  0  0  0  0  0  0  0  0
   -0.9852   -1.1007   -0.9172 H   0  0  0  0  0  0  0  0  0  0  0  0
    2.6658   -1.7269    0.5002 H   0  0  0  0  0  0  0  0  0  0  0  0
   -2.0706   -0.9982    1.9606 H   0  0  0  0  0  0  0  0  0  0  0  0
   -3.6924   -1.6920   -0.5433 H   0  0  0  0  0  0  0  0  0  0  0  0
   -3.8700    0.9397    1.0139 H   0  0  0  0  0  0  0  0  0  0  0  0
   -2.5401    0.5076   -1.7403 H   0  0  0  0  0  0  0  0  0  0  0  0
    2.8240    2.1023   -0.6218 H   0  0  0  0  0  0  0  0  0  0  0  0
    4.8961    0.8747   -0.7072 H   0  0  0  0  0  0  0  0  0  0  0  0
    1.4701   -1.7137   -2.3195 H   0  0  0  0  0  0  0  0  0  0  0  0
    0.9566   -2.7716   -0.9828 H   0  0  0  0  0  0  0  0  0  0  0  0
   -2.7515    3.0160    0.0066 H   0  0  0  0  0  0  0  0  0  0  0  0
   -3.6632    2.7300   -1.4953 H   0  0  0  0  0  0  0  0  0  0  0  0
    1.2628    2.7020    1.5495 H   0  0  0  0  0  0  0  0  0  0  0  0
   -1.8896   -3.0436   -0.0060 H   0  0  0  0  0  0  0  0  0  0  0  0
   -5.3778   -1.3261    0.9316 H   0  0  0  0  0  0  0  0  0  0  0  0
   -4.8765    0.0813   -1.5069 H   0  0  0  0  0  0  0  0  0  0  0  0
    4.5245    2.7664    0.7584 H   0  0  0  0  0  0  0  0  0  0  0  0
    5.5643   -0.5352    0.7051 H   0  0  0  0  0  0  0  0  0  0  0  0
    3.5758   -2.5728   -2.0685 H   0  0  0  0  0  0  0  0  0  0  0  0
   -0.8345    2.7188   -1.2086 H   0  0  0  0  0  0  0  0  0  0  0  0
  1 12  1  0  0  0  0
  1 14  1  0  0  0  0
  2 14  1  0  0  0  0
  2 20  1  0  0  0  0
  3 15  1  0  0  0  0
  3 21  1  0  0  0  0
  4 13  1  0  0  0  0
  4 38  1  0  0  0  0
  5 16  1  0  0  0  0
  5 39  1  0  0  0  0
  6 17  1  0  0  0  0
  6 40  1  0  0  0  0
  7 18  1  0  0  0  0
  7 41  1  0  0  0  0
  8 19  1  0  0  0  0
  8 42  1  0  0  0  0
  9 21  1  0  0  0  0
  9 43  1  0  0  0  0
 10 22  1  0  0  0  0
 10 44  1  0  0  0  0
 11 23  1  0  0  0  0
 11 45  1  0  0  0  0
 12 13  1  0  0  0  0
 12 15  1  0  0  0  0
 12 24  1  0  0  0  0
 13 19  1  0  0  0  0
 13 25  1  0  0  0  0
 14 16  1  0  0  0  0
 14 26  1  0  0  0  0
 15 22  1  0  0  0  0
 15 27  1  0  0  0  0
 16 17  1  0  0  0  0
 16 28  1  0  0  0  0
 17 18  1  0  0  0  0
 17 29  1  0  0  0  0
 18 20  1  0  0  0  0
 18 30  1  0  0  0  0
 19 21  1  0  0  0  0
 19 32  1  0  0  0  0
 20 23  1  0  0  0  0
 20 31  1  0  0  0  0
 21 33  1  0  0  0  0
 22 34  1  0  0  0  0
 22 35  1  0  0  0  0
 23 36  1  0  0  0  0
 23 37  1  0  0  0  0
M  END
> <PUBCHEM_COMPOUND_CID>
441014

> <PUBCHEM_CONFORMER_RMSD>
0.8

> <PUBCHEM_CONFORMER_DIVERSEORDER>
1
16
52
76
72
60
42
30
77
9
54
53
64
70
58
81
75
22
2
62
33
11
63
50
12
61
18
36
34
35
65
44
29
32
66
79
74
56
8
6
3
80
24
48
46
78
4
41
57
69
38
49
37
17
45
20
13
67
47
15
71
68
21
5
10
55
27
39
26
73
59
28
14
51
40
31
43
7
25
23
19

> <PUBCHEM_MMFF94_PARTIAL_CHARGES>
31
1 -0.56
10 -0.68
11 -0.68
12 0.28
13 0.28
14 0.56
15 0.28
16 0.28
17 0.28
18 0.28
19 0.28
2 -0.56
20 0.28
21 0.56
22 0.28
23 0.28
3 -0.56
38 0.4
39 0.4
4 -0.68
40 0.4
41 0.4
42 0.4
43 0.4
44 0.4
45 0.4
5 -0.68
6 -0.68
7 -0.68
8 -0.68
9 -0.68

> <PUBCHEM_EFFECTIVE_ROTOR_COUNT>
6.4

> <PUBCHEM_PHARMACOPHORE_FEATURES>
21
1 1 acceptor
1 10 acceptor
1 10 donor
1 11 acceptor
1 11 donor
1 2 acceptor
1 3 acceptor
1 4 acceptor
1 4 donor
1 5 acceptor
1 5 donor
1 6 acceptor
1 6 donor
1 7 acceptor
1 7 donor
1 8 acceptor
1 8 donor
1 9 acceptor
1 9 donor
6 2 14 16 17 18 20 rings
6 3 12 13 15 19 21 rings

> <PUBCHEM_HEAVY_ATOM_COUNT>
23

> <PUBCHEM_ATOM_DEF_STEREO_COUNT>
10

> <PUBCHEM_ATOM_UDEF_STEREO_COUNT>
0

> <PUBCHEM_BOND_DEF_STEREO_COUNT>
0

> <PUBCHEM_BOND_UDEF_STEREO_COUNT>
0

> <PUBCHEM_ISOTOPIC_ATOM_COUNT>
0

> <PUBCHEM_COMPONENT_COUNT>
1

> <PUBCHEM_CACTVS_TAUTO_COUNT>
1

> <PUBCHEM_CONFORMER_ID>
0006BAB600000001

> <PUBCHEM_MMFF94_ENERGY>
64.167

> <PUBCHEM_FEATURE_SELFOVERLAP>
106.714

> <PUBCHEM_SHAPE_FINGERPRINT>
10366900 7 18412545426716956717
10498660 4 18040710355933237221
10608611 8 18410008840527984752
10646746 165 18260261932636056064
10871710 139 16463896680285925380
12173636 292 18115020801983117007
12236239 1 15864068779960101690
12553582 1 17551816723879631310
12623949 98 17986979469026365999
13402501 40 18411138047506683369
14251757 17 18267585697794272506
15219456 202 18341051899392486179
15375358 24 18413108372391442611
15635459 17 18342741788687674214
15961568 22 17896323687170089484
18186145 218 18120942702358052565
19049666 15 18339081462786096055
200 152 17561361790372484259
20510252 161 18335421253598033249
20600515 1 17241606302681149741
20645477 56 18335424551953353891
20645477 70 17632298926274775806
20693207 138 18268725917111719462
23114952 82 18340495482263761284
23402539 116 18261383486167961543
23526113 38 18198058084222603706
23557571 272 18186811304657881535
23559900 14 18334583412541614262
238 59 18126254524762844205
3524813 1 18410567388161280001
495365 180 17917134087734270464
5104073 3 18408040736305102281
6049 1 18338527339095930693
621550 34 18341335590487873431
6913067 236 18270104833621311047
7399639 24 18269551800620372888
81228 2 18114761390216514905
9709674 26 18340487763954329247
9925002 15 16685131596357734910

> <PUBCHEM_SHAPE_MULTIPOLES>
408.77
8.85
3.01
1.33
0.89
0.02
0.25
0.44
-0.59
-0.17
0.83
-0.21
-0.13
2.95

> <PUBCHEM_SHAPE_SELFOVERLAP>
836.532

> <PUBCHEM_SHAPE_VOLUME>
230.5

> <PUBCHEM_COORDINATE_TYPE>
2
5
10

$$$$
