14132337
  -OEChem-02172602563D

 41 42  0     1  0  0  0  0  0999 V2000
    1.3480   -0.5523    0.2050 O   0  0  0  0  0  0  0  0  0  0  0  0
    0.2978    1.5293    0.1162 O   0  0  0  0  0  0  0  0  0  0  0  0
    5.0694    1.1711   -0.0136 O   0  0  0  0  0  0  0  0  0  0  0  0
    4.7556   -1.6479   -0.5708 O   0  0  0  0  0  0  0  0  0  0  0  0
    2.6865    2.6670   -0.8878 O   0  0  0  0  0  0  0  0  0  0  0  0
    0.8856   -3.2554    0.0170 O   0  0  0  0  0  0  0  0  0  0  0  0
   -1.2797    1.0016    2.3423 O   0  0  0  0  0  0  0  0  0  0  0  0
   -5.2299   -0.6405   -1.8384 O   0  0  0  0  0  0  0  0  0  0  0  0
   -5.6835   -0.7428    0.3865 O   0  0  0  0  0  0  0  0  0  0  0  0
    3.8733    0.5949   -0.5405 C   0  0  1  0  0  0  0  0  0  0  0  0
    3.7489   -0.8249    0.0127 C   0  0  1  0  0  0  0  0  0  0  0  0
    2.6743    1.4531   -0.1371 C   0  0  2  0  0  0  0  0  0  0  0  0
    2.3707   -1.4115   -0.3020 C   0  0  1  0  0  0  0  0  0  0  0  0
    1.3555    0.7316   -0.4149 C   0  0  1  0  0  0  0  0  0  0  0  0
    2.1802   -2.7819    0.3403 C   0  0  0  0  0  0  0  0  0  0  0  0
   -0.9713    1.0404   -0.0313 C   0  0  0  0  0  0  0  0  0  0  0  0
   -1.7577    0.7773    1.0867 C   0  0  0  0  0  0  0  0  0  0  0  0
   -1.4665    0.8090   -1.3116 C   0  0  0  0  0  0  0  0  0  0  0  0
   -3.0501    0.2784    0.9232 C   0  0  0  0  0  0  0  0  0  0  0  0
   -2.7587    0.3102   -1.4751 C   0  0  0  0  0  0  0  0  0  0  0  0
   -3.5506    0.0449   -0.3577 C   0  0  0  0  0  0  0  0  0  0  0  0
   -4.8986   -0.4736   -0.5286 C   0  0  0  0  0  0  0  0  0  0  0  0
   -0.5992   -0.0779    2.9795 C   0  0  0  0  0  0  0  0  0  0  0  0
    3.9898    0.5831   -1.6313 H   0  0  0  0  0  0  0  0  0  0  0  0
    3.9237   -0.8106    1.0955 H   0  0  0  0  0  0  0  0  0  0  0  0
    2.7462    1.7333    0.9205 H   0  0  0  0  0  0  0  0  0  0  0  0
    2.2270   -1.5222   -1.3855 H   0  0  0  0  0  0  0  0  0  0  0  0
    1.2195    0.6225   -1.4988 H   0  0  0  0  0  0  0  0  0  0  0  0
    2.2522   -2.7262    1.4317 H   0  0  0  0  0  0  0  0  0  0  0  0
    2.9135   -3.5063   -0.0253 H   0  0  0  0  0  0  0  0  0  0  0  0
    5.8092    0.5965   -0.2753 H   0  0  0  0  0  0  0  0  0  0  0  0
    4.6041   -1.6725   -1.5310 H   0  0  0  0  0  0  0  0  0  0  0  0
    2.6249    2.4392   -1.8312 H   0  0  0  0  0  0  0  0  0  0  0  0
    0.2434   -2.6016    0.3427 H   0  0  0  0  0  0  0  0  0  0  0  0
   -0.8730    1.0276   -2.1944 H   0  0  0  0  0  0  0  0  0  0  0  0
   -3.6572    0.0767    1.8025 H   0  0  0  0  0  0  0  0  0  0  0  0
   -3.1102    0.1471   -2.4900 H   0  0  0  0  0  0  0  0  0  0  0  0
    0.4507   -0.0847    2.6753 H   0  0  0  0  0  0  0  0  0  0  0  0
   -1.0636   -1.0426    2.7490 H   0  0  0  0  0  0  0  0  0  0  0  0
   -0.6444    0.0810    4.0605 H   0  0  0  0  0  0  0  0  0  0  0  0
   -6.1407   -0.9899   -1.9428 H   0  0  0  0  0  0  0  0  0  0  0  0
  1 13  1  0  0  0  0
  1 14  1  0  0  0  0
  2 14  1  0  0  0  0
  2 16  1  0  0  0  0
  3 10  1  0  0  0  0
  3 31  1  0  0  0  0
  4 11  1  0  0  0  0
  4 32  1  0  0  0  0
  5 12  1  0  0  0  0
  5 33  1  0  0  0  0
  6 15  1  0  0  0  0
  6 34  1  0  0  0  0
  7 17  1  0  0  0  0
  7 23  1  0  0  0  0
  8 22  1  0  0  0  0
  8 41  1  0  0  0  0
  9 22  2  0  0  0  0
 10 11  1  0  0  0  0
 10 12  1  0  0  0  0
 10 24  1  0  0  0  0
 11 13  1  0  0  0  0
 11 25  1  0  0  0  0
 12 14  1  0  0  0  0
 12 26  1  0  0  0  0
 13 15  1  0  0  0  0
 13 27  1  0  0  0  0
 14 28  1  0  0  0  0
 15 29  1  0  0  0  0
 15 30  1  0  0  0  0
 16 17  2  0  0  0  0
 16 18  1  0  0  0  0
 17 19  1  0  0  0  0
 18 20  2  0  0  0  0
 18 35  1  0  0  0  0
 19 21  2  0  0  0  0
 19 36  1  0  0  0  0
 20 21  1  0  0  0  0
 20 37  1  0  0  0  0
 21 22  1  0  0  0  0
 23 38  1  0  0  0  0
 23 39  1  0  0  0  0
 23 40  1  0  0  0  0
M  END
> <PUBCHEM_COMPOUND_CID>
14132337

> <PUBCHEM_CONFORMER_RMSD>
0.8

> <PUBCHEM_CONFORMER_DIVERSEORDER>
1
100
71
108
67
83
32
59
89
44
39
92
60
40
78
102
99
15
112
68
105
70
33
85
16
84
107
35
23
81
8
77
95
5
45
56
73
9
28
86
97
48
101
57
64
93
22
62
19
41
26
49
103
51
82
10
53
79
20
111
34
91
58
94
29
30
27
11
75
46
72
6
61
96
87
52
2
50
17
66
38
65
12
37
88
104
55
3
80
47
4
18
76
43
109
24
106
31
110
13
63
98
69
54
7
74
25
90
14
42
36
21

> <PUBCHEM_MMFF94_PARTIAL_CHARGES>
31
1 -0.56
10 0.28
11 0.28
12 0.28
13 0.28
14 0.56
15 0.28
16 0.08
17 0.08
18 -0.15
19 -0.15
2 -0.36
20 -0.15
21 0.09
22 0.63
23 0.28
3 -0.68
31 0.4
32 0.4
33 0.4
34 0.4
35 0.15
36 0.15
37 0.15
4 -0.68
41 0.5
5 -0.68
6 -0.68
7 -0.36
8 -0.65
9 -0.57

> <PUBCHEM_EFFECTIVE_ROTOR_COUNT>
6.2

> <PUBCHEM_PHARMACOPHORE_FEATURES>
16
1 1 acceptor
1 2 acceptor
1 3 acceptor
1 3 donor
1 4 acceptor
1 4 donor
1 5 acceptor
1 5 donor
1 6 acceptor
1 6 donor
1 7 acceptor
1 8 acceptor
1 9 acceptor
3 8 9 22 anion
6 1 10 11 12 13 14 rings
6 16 17 18 19 20 21 rings

> <PUBCHEM_HEAVY_ATOM_COUNT>
23

> <PUBCHEM_ATOM_DEF_STEREO_COUNT>
5

> <PUBCHEM_ATOM_UDEF_STEREO_COUNT>
0

> <PUBCHEM_BOND_DEF_STEREO_COUNT>
0

> <PUBCHEM_BOND_UDEF_STEREO_COUNT>
0

> <PUBCHEM_ISOTOPIC_ATOM_COUNT>
0

> <PUBCHEM_COMPONENT_COUNT>
1

> <PUBCHEM_CACTVS_TAUTO_COUNT>
1

> <PUBCHEM_CONFORMER_ID>
00D7A47100000001

> <PUBCHEM_MMFF94_ENERGY>
84.6207

> <PUBCHEM_FEATURE_SELFOVERLAP>
81.327

> <PUBCHEM_SHAPE_FINGERPRINT>
10366900 7 17749681701023965062
10906281 52 17386304132856443836
11140007 195 13039189225454888331
11578080 2 12542376137774455694
11796584 16 17989487438069069367
12236239 1 17918278657584587949
12592029 89 18334855021856950930
12596599 1 17485098405360614446
12596602 18 17561081427465249217
12788726 201 17417824915606472449
13009979 54 17487056644323356242
13836976 161 18261395593807214004
13862211 1 18264208007661328366
13911987 19 18117014349846093500
14787075 74 17775281715767743424
14844126 61 16027886851651138466
15375358 24 17458068165995214440
15375462 189 17917986174896549103
17138139 8 17843102960403279791
18186145 218 17022903441396486677
200 152 18413952784658173225
20028762 73 18201152166464296598
20567600 347 16443337659423326611
20600515 1 15769770295170870681
20645477 70 18187366544976220940
2297311 6 15338851888383314152
23402539 116 16226039037553275733
23526113 38 17677050122976815504
23557571 272 17022896844163093077
23559900 14 16588029009120139088
23598288 3 17488458568829853917
238 59 18260834791105429202
2871803 45 18335699416653759798
33382 64 18410298051548027691
33824 294 18335419067280331262
4340502 62 18269552900132052520
4409770 3 15533861601203111673
9709674 26 18114187388879678651

> <PUBCHEM_SHAPE_MULTIPOLES>
420.51
10.07
2.29
1.71
4.42
1.32
1.34
1.8
-3.33
-2.89
-0.25
1.67
-0.17
-0.37

> <PUBCHEM_SHAPE_SELFOVERLAP>
884.24

> <PUBCHEM_SHAPE_VOLUME>
234.4

> <PUBCHEM_COORDINATE_TYPE>
2
5
10

$$$$
