442934
  -OEChem-02172602363D

 27 29  0     1  0  0  0  0  0999 V2000
   -3.4230   -1.2596    1.0434 O   0  0  0  0  0  0  0  0  0  0  0  0
    4.6066    0.6747    0.1439 O   0  0  0  0  0  0  0  0  0  0  0  0
   -1.4616    0.9416   -0.0487 N   0  0  0  0  0  0  0  0  0  0  0  0
   -0.6083   -1.2913   -0.2042 N   0  0  0  0  0  0  0  0  0  0  0  0
   -2.7428    1.6059    0.0263 C   0  0  0  0  0  0  0  0  0  0  0  0
   -3.6856    0.5384   -0.5550 C   0  0  0  0  0  0  0  0  0  0  0  0
   -3.0225   -0.8102   -0.2341 C   0  0  1  0  0  0  0  0  0  0  0  0
   -1.5662   -0.4218   -0.1690 C   0  0  0  0  0  0  0  0  0  0  0  0
   -0.2043    1.6161    0.1600 C   0  0  0  0  0  0  0  0  0  0  0  0
    0.9411    0.6308    0.0559 C   0  0  0  0  0  0  0  0  0  0  0  0
    0.6982   -0.7534   -0.1139 C   0  0  0  0  0  0  0  0  0  0  0  0
    2.2590    1.0999    0.1428 C   0  0  0  0  0  0  0  0  0  0  0  0
    1.7860   -1.6309   -0.1955 C   0  0  0  0  0  0  0  0  0  0  0  0
    3.3297    0.2111    0.0587 C   0  0  0  0  0  0  0  0  0  0  0  0
    3.0937   -1.1513   -0.1105 C   0  0  0  0  0  0  0  0  0  0  0  0
   -2.7715    2.5296   -0.5592 H   0  0  0  0  0  0  0  0  0  0  0  0
   -2.9961    1.8257    1.0688 H   0  0  0  0  0  0  0  0  0  0  0  0
   -4.6976    0.6374   -0.1509 H   0  0  0  0  0  0  0  0  0  0  0  0
   -3.7330    0.6657   -1.6439 H   0  0  0  0  0  0  0  0  0  0  0  0
   -3.2158   -1.5789   -0.9860 H   0  0  0  0  0  0  0  0  0  0  0  0
   -0.1925    2.0752    1.1550 H   0  0  0  0  0  0  0  0  0  0  0  0
   -0.0800    2.4008   -0.5946 H   0  0  0  0  0  0  0  0  0  0  0  0
    2.4422    2.1636    0.2772 H   0  0  0  0  0  0  0  0  0  0  0  0
   -4.3948   -1.2798    1.0606 H   0  0  0  0  0  0  0  0  0  0  0  0
    1.6198   -2.6976   -0.3262 H   0  0  0  0  0  0  0  0  0  0  0  0
    3.9253   -1.8478   -0.1758 H   0  0  0  0  0  0  0  0  0  0  0  0
    4.5849    1.6402    0.2598 H   0  0  0  0  0  0  0  0  0  0  0  0
  1  7  1  0  0  0  0
  1 24  1  0  0  0  0
  2 14  1  0  0  0  0
  2 27  1  0  0  0  0
  3  5  1  0  0  0  0
  3  8  1  0  0  0  0
  3  9  1  0  0  0  0
  4  8  2  0  0  0  0
  4 11  1  0  0  0  0
  5  6  1  0  0  0  0
  5 16  1  0  0  0  0
  5 17  1  0  0  0  0
  6  7  1  0  0  0  0
  6 18  1  0  0  0  0
  6 19  1  0  0  0  0
  7  8  1  0  0  0  0
  7 20  1  0  0  0  0
  9 10  1  0  0  0  0
  9 21  1  0  0  0  0
  9 22  1  0  0  0  0
 10 11  2  0  0  0  0
 10 12  1  0  0  0  0
 11 13  1  0  0  0  0
 12 14  2  0  0  0  0
 12 23  1  0  0  0  0
 13 15  2  0  0  0  0
 13 25  1  0  0  0  0
 14 15  1  0  0  0  0
 15 26  1  0  0  0  0
M  END
> <PUBCHEM_COMPOUND_CID>
442934

> <PUBCHEM_CONFORMER_RMSD>
0.4

> <PUBCHEM_CONFORMER_DIVERSEORDER>
1

> <PUBCHEM_MMFF94_PARTIAL_CHARGES>
19
1 -0.68
10 -0.14
11 0.18
12 -0.15
13 -0.15
14 0.08
15 -0.15
2 -0.53
23 0.15
24 0.4
25 0.15
26 0.15
27 0.45
3 -0.79
4 -0.63
5 0.37
7 0.34
8 0.44
9 0.51

> <PUBCHEM_EFFECTIVE_ROTOR_COUNT>
0.8

> <PUBCHEM_PHARMACOPHORE_FEATURES>
7
1 1 acceptor
1 1 donor
1 2 donor
3 3 4 8 cation
5 3 5 6 7 8 rings
6 10 11 12 13 14 15 rings
6 3 4 8 9 10 11 rings

> <PUBCHEM_HEAVY_ATOM_COUNT>
15

> <PUBCHEM_ATOM_DEF_STEREO_COUNT>
1

> <PUBCHEM_ATOM_UDEF_STEREO_COUNT>
0

> <PUBCHEM_BOND_DEF_STEREO_COUNT>
0

> <PUBCHEM_BOND_UDEF_STEREO_COUNT>
0

> <PUBCHEM_ISOTOPIC_ATOM_COUNT>
0

> <PUBCHEM_COMPONENT_COUNT>
1

> <PUBCHEM_CACTVS_TAUTO_COUNT>
12

> <PUBCHEM_CONFORMER_ID>
0006C23600000001

> <PUBCHEM_MMFF94_ENERGY>
40.6549

> <PUBCHEM_FEATURE_SELFOVERLAP>
35.65

> <PUBCHEM_SHAPE_FINGERPRINT>
10608611 8 18411132511310039900
10967382 1 18412261696903475446
11132069 177 18343292691410642050
11471102 20 18340762667799732580
12032990 46 18411425011493965262
12932764 1 17417801859631280614
13140716 1 17979919637327101603
13214271 11 18409726274750705535
13221675 6 18413107268737594502
13296908 3 18411703157823626743
13380535 76 18411134736440657374
14144814 61 18412262809310496178
14325111 11 18411698759924717716
15196674 1 18411980234964595494
15219456 202 18412266112077205630
15309172 13 18060704995916289455
15442244 35 18052256189765237026
15536298 74 18272087154665582886
15775835 57 18343302552412986556
16945 1 18341890856734239741
17844478 74 18334583455527885339
18186145 218 17968660415062917486
18522853 276 18412825789408004697
19026448 5 16370724842067449646
193761 8 17619626229919718524
19591789 44 16316420284941911813
200 152 17988915687495419661
20201158 50 18411135818471527711
20279233 1 18334859411429584943
20510252 161 18273217469366399881
20645477 70 18201433615021765839
21267235 1 18412270523066816326
21501502 16 18269271261935976632
2334 1 18412263913074886669
23402539 116 18340757221691654030
23402655 69 18271514300443984157
23463225 33 18409446968790585924
23559900 14 18268143150801874258
2748010 2 18340486673069416333
3312278 4 18411700971817064001
335352 9 17979636727825935492
5104073 3 18410854326599726946
528886 8 18413099567956145834
53812653 166 18271801328697181880
7364860 26 18199185084226928990
8809292 202 18261961756011336323
9709674 26 18412266112082785863

> <PUBCHEM_SHAPE_MULTIPOLES>
286.99
6.94
1.73
0.69
1.32
0.02
0.04
0.22
0.12
-0.16
0.07
-0.28
-0.08
0.36

> <PUBCHEM_SHAPE_SELFOVERLAP>
630.257

> <PUBCHEM_SHAPE_VOLUME>
156.2

> <PUBCHEM_COORDINATE_TYPE>
2
5
10

$$$$
