5366432
  -OEChem-02172602433D

 51 50  0     0  0  0  0  0  0999 V2000
    3.0281   -0.4238    0.0129 Si  0  0  0  0  0  0  0  0  0  0  0  0
    1.3944   -1.0031    2.0310 O   0  0  0  0  0  0  0  0  0  0  0  0
    2.8225    1.3973   -0.3896 C   0  0  0  0  0  0  0  0  0  0  0  0
    1.4327   -1.0697    0.8096 C   0  0  0  0  0  0  0  0  0  0  0  0
    3.3696   -1.3744   -1.5723 C   0  0  0  0  0  0  0  0  0  0  0  0
    4.4888   -0.6426    1.1677 C   0  0  0  0  0  0  0  0  0  0  0  0
    2.5357    2.1988    0.8995 C   0  0  0  0  0  0  0  0  0  0  0  0
    4.1107    1.9482   -1.0410 C   0  0  0  0  0  0  0  0  0  0  0  0
    1.6458    1.5962   -1.3704 C   0  0  0  0  0  0  0  0  0  0  0  0
    0.3268   -1.6337   -0.0508 C   0  0  0  0  0  0  0  0  0  0  0  0
   -1.0360   -1.5307    0.6395 C   0  0  0  0  0  0  0  0  0  0  0  0
   -2.1568   -2.1863   -0.1473 C   0  0  0  0  0  0  0  0  0  0  0  0
   -2.8936   -1.4500   -1.0024 C   0  0  0  0  0  0  0  0  0  0  0  0
   -2.3518   -3.6528    0.1204 C   0  0  0  0  0  0  0  0  0  0  0  0
   -2.7655    0.0115   -1.3264 C   0  0  0  0  0  0  0  0  0  0  0  0
   -3.7376    0.8299   -0.5230 C   0  0  0  0  0  0  0  0  0  0  0  0
   -3.4828    1.8977    0.2573 C   0  0  0  0  0  0  0  0  0  0  0  0
   -4.6037    2.5898    0.9869 C   0  0  0  0  0  0  0  0  0  0  0  0
   -2.1271    2.4976    0.4986 C   0  0  0  0  0  0  0  0  0  0  0  0
    3.4664   -2.4432   -1.3586 H   0  0  0  0  0  0  0  0  0  0  0  0
    2.5595   -1.2465   -2.2955 H   0  0  0  0  0  0  0  0  0  0  0  0
    4.3009   -1.0378   -2.0365 H   0  0  0  0  0  0  0  0  0  0  0  0
    4.3440   -0.0859    2.0979 H   0  0  0  0  0  0  0  0  0  0  0  0
    4.6150   -1.6990    1.4240 H   0  0  0  0  0  0  0  0  0  0  0  0
    5.4157   -0.2973    0.7011 H   0  0  0  0  0  0  0  0  0  0  0  0
    2.4101    3.2643    0.6716 H   0  0  0  0  0  0  0  0  0  0  0  0
    1.6152    1.8668    1.3946 H   0  0  0  0  0  0  0  0  0  0  0  0
    3.3535    2.1209    1.6254 H   0  0  0  0  0  0  0  0  0  0  0  0
    4.3534    1.4329   -1.9776 H   0  0  0  0  0  0  0  0  0  0  0  0
    4.9788    1.8641   -0.3768 H   0  0  0  0  0  0  0  0  0  0  0  0
    3.9957    3.0121   -1.2823 H   0  0  0  0  0  0  0  0  0  0  0  0
    0.6970    1.2510   -0.9484 H   0  0  0  0  0  0  0  0  0  0  0  0
    1.5196    2.6589   -1.6110 H   0  0  0  0  0  0  0  0  0  0  0  0
    1.8030    1.0705   -2.3193 H   0  0  0  0  0  0  0  0  0  0  0  0
    0.2929   -1.1046   -1.0085 H   0  0  0  0  0  0  0  0  0  0  0  0
    0.5738   -2.6817   -0.2569 H   0  0  0  0  0  0  0  0  0  0  0  0
   -1.2590   -0.4797    0.8567 H   0  0  0  0  0  0  0  0  0  0  0  0
   -0.9873   -2.0033    1.6300 H   0  0  0  0  0  0  0  0  0  0  0  0
   -3.6967   -1.9610   -1.5334 H   0  0  0  0  0  0  0  0  0  0  0  0
   -1.4431   -4.2122   -0.1225 H   0  0  0  0  0  0  0  0  0  0  0  0
   -3.1684   -4.0658   -0.4809 H   0  0  0  0  0  0  0  0  0  0  0  0
   -2.5960   -3.8198    1.1742 H   0  0  0  0  0  0  0  0  0  0  0  0
   -1.7325    0.3459   -1.2189 H   0  0  0  0  0  0  0  0  0  0  0  0
   -3.0013    0.1442   -2.3898 H   0  0  0  0  0  0  0  0  0  0  0  0
   -4.7765    0.5128   -0.6185 H   0  0  0  0  0  0  0  0  0  0  0  0
   -4.4264    2.5619    2.0671 H   0  0  0  0  0  0  0  0  0  0  0  0
   -4.6711    3.6365    0.6723 H   0  0  0  0  0  0  0  0  0  0  0  0
   -5.5766    2.1237    0.7988 H   0  0  0  0  0  0  0  0  0  0  0  0
   -2.1318    3.5581    0.2253 H   0  0  0  0  0  0  0  0  0  0  0  0
   -1.8641    2.4171    1.5586 H   0  0  0  0  0  0  0  0  0  0  0  0
   -1.3298    2.0239   -0.0735 H   0  0  0  0  0  0  0  0  0  0  0  0
  1  3  1  0  0  0  0
  1  4  1  0  0  0  0
  1  5  1  0  0  0  0
  1  6  1  0  0  0  0
  2  4  2  0  0  0  0
  3  7  1  0  0  0  0
  3  8  1  0  0  0  0
  3  9  1  0  0  0  0
  4 10  1  0  0  0  0
  5 20  1  0  0  0  0
  5 21  1  0  0  0  0
  5 22  1  0  0  0  0
  6 23  1  0  0  0  0
  6 24  1  0  0  0  0
  6 25  1  0  0  0  0
  7 26  1  0  0  0  0
  7 27  1  0  0  0  0
  7 28  1  0  0  0  0
  8 29  1  0  0  0  0
  8 30  1  0  0  0  0
  8 31  1  0  0  0  0
  9 32  1  0  0  0  0
  9 33  1  0  0  0  0
  9 34  1  0  0  0  0
 10 11  1  0  0  0  0
 10 35  1  0  0  0  0
 10 36  1  0  0  0  0
 11 12  1  0  0  0  0
 11 37  1  0  0  0  0
 11 38  1  0  0  0  0
 12 13  2  0  0  0  0
 12 14  1  0  0  0  0
 13 15  1  0  0  0  0
 13 39  1  0  0  0  0
 14 40  1  0  0  0  0
 14 41  1  0  0  0  0
 14 42  1  0  0  0  0
 15 16  1  0  0  0  0
 15 43  1  0  0  0  0
 15 44  1  0  0  0  0
 16 17  2  0  0  0  0
 16 45  1  0  0  0  0
 17 18  1  0  0  0  0
 17 19  1  0  0  0  0
 18 46  1  0  0  0  0
 18 47  1  0  0  0  0
 18 48  1  0  0  0  0
 19 49  1  0  0  0  0
 19 50  1  0  0  0  0
 19 51  1  0  0  0  0
M  END
> <PUBCHEM_COMPOUND_CID>
5366432

> <PUBCHEM_CONFORMER_RMSD>
1

> <PUBCHEM_CONFORMER_DIVERSEORDER>
1
137
71
111
116
211
198
153
17
163
156
70
127
177
101
250
221
233
200
135
173
109
222
212
217
100
147
160
203
144
125
204
113
74
195
25
64
24
45
77
205
225
249
50
112
191
88
154
216
38
78
35
141
206
63
176
201
146
91
56
130
240
164
42
129
185
237
122
80
97
10
150
209
86
20
57
187
192
8
37
131
168
33
238
120
165
219
43
224
114
213
14
81
105
241
6
115
23
53
148
65
208
207
89
151
90
48
218
194
193
126
182
108
68
44
157
140
66
13
186
220
171
69
128
199
149
142
136
232
242
118
40
95
162
214
124
87
121
223
248
190
32
82
227
46
143
54
39
16
28
2
41
26
96
85
215
180
228
103
12
31
104
7
5
138
30
75
110
179
98
170
134
15
133
21
159
119
178
167
244
52
231
22
11
172
152
161
4
102
62
47
235
169
158
183
188
9
174
145
230
60
83
226
73
184
84
245
243
92
94
202
76
61
29
72
239
18
247
132
197
79
210
27
49
93
236
246
3
58
34
55
19
139
175
166
106
99
155
196
51
123
234
107
229
59
189
181
117
67
36

> <PUBCHEM_MMFF94_PARTIAL_CHARGES>
18
1 0.43
10 0.06
11 0.14
12 -0.28
13 -0.29
14 0.14
15 0.28
16 -0.29
17 -0.28
18 0.14
19 0.14
2 -0.57
3 -0.08
39 0.15
4 0.32
45 0.15
5 -0.08
6 -0.08

> <PUBCHEM_EFFECTIVE_ROTOR_COUNT>
7

> <PUBCHEM_PHARMACOPHORE_FEATURES>
3
1 14 hydrophobe
3 17 18 19 hydrophobe
4 3 7 8 9 hydrophobe

> <PUBCHEM_HEAVY_ATOM_COUNT>
19

> <PUBCHEM_ATOM_DEF_STEREO_COUNT>
0

> <PUBCHEM_ATOM_UDEF_STEREO_COUNT>
0

> <PUBCHEM_BOND_DEF_STEREO_COUNT>
1

> <PUBCHEM_BOND_UDEF_STEREO_COUNT>
0

> <PUBCHEM_ISOTOPIC_ATOM_COUNT>
0

> <PUBCHEM_COMPONENT_COUNT>
1

> <PUBCHEM_CACTVS_TAUTO_COUNT>
1

> <PUBCHEM_CONFORMER_ID>
0051E2A000000001

> <PUBCHEM_MMFF94_ENERGY>
23.3065

> <PUBCHEM_FEATURE_SELFOVERLAP>
15.223

> <PUBCHEM_SHAPE_FINGERPRINT>
10498660 4 18266168607963675511
10764073 3 17626910168674615610
10906281 52 18040724680250471634
11615756 256 18408604785601228580
12173636 292 18340763832052861727
12596599 1 18334292076108878734
12633257 1 18335130952109932660
12788726 201 18267577091297632975
14123250 116 18408603695101716737
14251764 38 18127961104486275256
18785283 64 18050294661454490083
19930381 70 17186718862674345665
20465049 17 18124332509971260799
20621476 13 17109584278127896973
20691752 17 17167857599967653388
21864079 5 18409167688647554611
22182937 141 18409452492424574619
22749437 52 18189885581812991237
23557571 272 18120096340461577839
23558518 356 18118411875826258912
23598288 3 18342174522313713327
2637199 183 18264784155172991751
38570 142 17751107806481631276
469060 322 16588876818547803931
474 4 18266175020724427189
5048184 11 18408888421232020749
5895379 119 18342453729942986208
6438718 38 18131628989302680781
7064713 232 18268983198580219665
7832392 63 18409732841861241494

> <PUBCHEM_SHAPE_MULTIPOLES>
403.35
9.07
3.71
1.47
1.37
0.55
0.01
-4.15
-0.17
3.26
0.39
-0.78
-0.01
-1.22

> <PUBCHEM_SHAPE_SELFOVERLAP>
751.818

> <PUBCHEM_SHAPE_VOLUME>
255.2

> <PUBCHEM_COORDINATE_TYPE>
2
5
10

$$$$
