5356421
  -OEChem-02172602573D

 53 53  0     1  0  0  0  0  0999 V2000
   -4.8543   -1.2310    1.4579 O   0  0  0  0  0  0  0  0  0  0  0  0
    7.2393    0.3161    1.1248 O   0  0  0  0  0  0  0  0  0  0  0  0
    6.2775   -0.1257   -0.8922 O   0  0  0  0  0  0  0  0  0  0  0  0
   -3.4635   -0.9672    1.2329 C   0  0  2  0  0  0  0  0  0  0  0  0
   -4.5180   -0.4970    0.2735 C   0  0  2  0  0  0  0  0  0  0  0  0
   -2.6490   -2.1688    0.9408 C   0  0  0  0  0  0  0  0  0  0  0  0
   -4.9790    0.9296    0.2723 C   0  0  0  0  0  0  0  0  0  0  0  0
   -1.4529   -1.8567    0.0308 C   0  0  0  0  0  0  0  0  0  0  0  0
   -0.5931   -3.0942   -0.2292 C   0  0  0  0  0  0  0  0  0  0  0  0
   -4.6769    1.7802   -0.9314 C   0  0  0  0  0  0  0  0  0  0  0  0
    0.5739   -2.7744   -1.1630 C   0  0  0  0  0  0  0  0  0  0  0  0
   -3.5628    2.4939   -1.1544 C   0  0  0  0  0  0  0  0  0  0  0  0
   -2.4066    2.5508   -0.1963 C   0  0  0  0  0  0  0  0  0  0  0  0
   -1.1065    1.9887   -0.7809 C   0  0  0  0  0  0  0  0  0  0  0  0
    0.0555    1.9756    0.2169 C   0  0  0  0  0  0  0  0  0  0  0  0
    1.3329    1.4332   -0.4284 C   0  0  0  0  0  0  0  0  0  0  0  0
    2.4871    1.3871    0.5750 C   0  0  0  0  0  0  0  0  0  0  0  0
    1.4119   -4.0102   -1.4502 C   0  0  0  0  0  0  0  0  0  0  0  0
    3.7551    0.8135   -0.0639 C   0  0  0  0  0  0  0  0  0  0  0  0
    4.9335    0.7819    0.9049 C   0  0  0  0  0  0  0  0  0  0  0  0
    6.1961    0.2748    0.2602 C   0  0  0  0  0  0  0  0  0  0  0  0
   -2.9696   -0.2539    1.8783 H   0  0  0  0  0  0  0  0  0  0  0  0
   -4.6567   -1.0019   -0.6730 H   0  0  0  0  0  0  0  0  0  0  0  0
   -2.2868   -2.5864    1.8879 H   0  0  0  0  0  0  0  0  0  0  0  0
   -3.2628   -2.9477    0.4706 H   0  0  0  0  0  0  0  0  0  0  0  0
   -4.6466    1.4403    1.1846 H   0  0  0  0  0  0  0  0  0  0  0  0
   -6.0738    0.9116    0.3663 H   0  0  0  0  0  0  0  0  0  0  0  0
   -1.8178   -1.4531   -0.9215 H   0  0  0  0  0  0  0  0  0  0  0  0
   -0.8390   -1.0747    0.4932 H   0  0  0  0  0  0  0  0  0  0  0  0
   -0.2093   -3.4824    0.7220 H   0  0  0  0  0  0  0  0  0  0  0  0
   -1.2128   -3.8827   -0.6735 H   0  0  0  0  0  0  0  0  0  0  0  0
   -5.4495    1.8058   -1.6976 H   0  0  0  0  0  0  0  0  0  0  0  0
    0.1969   -2.3669   -2.1081 H   0  0  0  0  0  0  0  0  0  0  0  0
    1.2123   -2.0084   -0.7089 H   0  0  0  0  0  0  0  0  0  0  0  0
   -3.4800    3.0663   -2.0745 H   0  0  0  0  0  0  0  0  0  0  0  0
   -2.6198    2.0299    0.7413 H   0  0  0  0  0  0  0  0  0  0  0  0
   -2.2480    3.6021    0.0752 H   0  0  0  0  0  0  0  0  0  0  0  0
   -0.8219    2.5832   -1.6587 H   0  0  0  0  0  0  0  0  0  0  0  0
   -1.2827    0.9680   -1.1412 H   0  0  0  0  0  0  0  0  0  0  0  0
   -0.2137    1.3593    1.0830 H   0  0  0  0  0  0  0  0  0  0  0  0
    0.2326    2.9929    0.5861 H   0  0  0  0  0  0  0  0  0  0  0  0
    1.6114    2.0655   -1.2803 H   0  0  0  0  0  0  0  0  0  0  0  0
    1.1462    0.4275   -0.8216 H   0  0  0  0  0  0  0  0  0  0  0  0
    2.6884    2.3977    0.9501 H   0  0  0  0  0  0  0  0  0  0  0  0
    2.2032    0.7713    1.4370 H   0  0  0  0  0  0  0  0  0  0  0  0
    1.8298   -4.4240   -0.5269 H   0  0  0  0  0  0  0  0  0  0  0  0
    2.2431   -3.7578   -2.1160 H   0  0  0  0  0  0  0  0  0  0  0  0
    0.8120   -4.7871   -1.9348 H   0  0  0  0  0  0  0  0  0  0  0  0
    3.5544   -0.2016   -0.4297 H   0  0  0  0  0  0  0  0  0  0  0  0
    4.0215    1.4139   -0.9432 H   0  0  0  0  0  0  0  0  0  0  0  0
    5.1275    1.7938    1.2782 H   0  0  0  0  0  0  0  0  0  0  0  0
    4.6972    0.1305    1.7534 H   0  0  0  0  0  0  0  0  0  0  0  0
    8.0677   -0.0133    0.7154 H   0  0  0  0  0  0  0  0  0  0  0  0
  1  4  1  0  0  0  0
  1  5  1  0  0  0  0
  2 21  1  0  0  0  0
  2 53  1  0  0  0  0
  3 21  2  0  0  0  0
  4  5  1  0  0  0  0
  4  6  1  0  0  0  0
  4 22  1  0  0  0  0
  5  7  1  0  0  0  0
  5 23  1  0  0  0  0
  6  8  1  0  0  0  0
  6 24  1  0  0  0  0
  6 25  1  0  0  0  0
  7 10  1  0  0  0  0
  7 26  1  0  0  0  0
  7 27  1  0  0  0  0
  8  9  1  0  0  0  0
  8 28  1  0  0  0  0
  8 29  1  0  0  0  0
  9 11  1  0  0  0  0
  9 30  1  0  0  0  0
  9 31  1  0  0  0  0
 10 12  2  0  0  0  0
 10 32  1  0  0  0  0
 11 18  1  0  0  0  0
 11 33  1  0  0  0  0
 11 34  1  0  0  0  0
 12 13  1  0  0  0  0
 12 35  1  0  0  0  0
 13 14  1  0  0  0  0
 13 36  1  0  0  0  0
 13 37  1  0  0  0  0
 14 15  1  0  0  0  0
 14 38  1  0  0  0  0
 14 39  1  0  0  0  0
 15 16  1  0  0  0  0
 15 40  1  0  0  0  0
 15 41  1  0  0  0  0
 16 17  1  0  0  0  0
 16 42  1  0  0  0  0
 16 43  1  0  0  0  0
 17 19  1  0  0  0  0
 17 44  1  0  0  0  0
 17 45  1  0  0  0  0
 18 46  1  0  0  0  0
 18 47  1  0  0  0  0
 18 48  1  0  0  0  0
 19 20  1  0  0  0  0
 19 49  1  0  0  0  0
 19 50  1  0  0  0  0
 20 21  1  0  0  0  0
 20 51  1  0  0  0  0
 20 52  1  0  0  0  0
M  END
> <PUBCHEM_COMPOUND_CID>
5356421

> <PUBCHEM_CONFORMER_RMSD>
1.6

> <PUBCHEM_CONFORMER_DIVERSEORDER>
1
14
25
32
9
13
43
31
27
42
24
55
6
3
56
46
5
7
47
19
51
10
4
40
50
22
17
44
41
45
30
35
48
12
11
23
36
28
33
49
8
21
16
2
29
15
54
20
52
18
53
37
39
38
34
26

> <PUBCHEM_MMFF94_PARTIAL_CHARGES>
17
1 -0.3
10 -0.29
12 -0.29
13 0.14
2 -0.65
20 0.06
21 0.66
22 0.1
23 0.1
3 -0.57
32 0.15
35 0.15
4 -0.05
5 -0.05
53 0.5
6 0.09
7 0.23

> <PUBCHEM_EFFECTIVE_ROTOR_COUNT>
14.6

> <PUBCHEM_PHARMACOPHORE_FEATURES>
6
1 1 acceptor
1 18 hydrophobe
1 2 acceptor
1 3 acceptor
3 2 3 21 anion
4 6 8 9 11 hydrophobe

> <PUBCHEM_HEAVY_ATOM_COUNT>
21

> <PUBCHEM_ATOM_DEF_STEREO_COUNT>
0

> <PUBCHEM_ATOM_UDEF_STEREO_COUNT>
2

> <PUBCHEM_BOND_DEF_STEREO_COUNT>
1

> <PUBCHEM_BOND_UDEF_STEREO_COUNT>
0

> <PUBCHEM_ISOTOPIC_ATOM_COUNT>
0

> <PUBCHEM_COMPONENT_COUNT>
1

> <PUBCHEM_CACTVS_TAUTO_COUNT>
1

> <PUBCHEM_CONFORMER_ID>
0051BB8500000001

> <PUBCHEM_MMFF94_ENERGY>
6.3781

> <PUBCHEM_FEATURE_SELFOVERLAP>
30.503

> <PUBCHEM_SHAPE_FINGERPRINT>
11014199 57 17545035365592746530
11524674 6 18201430380905779244
13402501 40 18412267224521123647
14647877 51 18123472683114825950
16719943 64 18335699455546147618
238918 7 18342461447582674270
338550 245 18259707809283332054
373842 8 18193831549379509706
5265222 85 18338805632188047796
559249 180 18040428880487379008
57583515 115 18335419101645337929
59755656 215 18336265656478120644
6437827 68 18335136458563928586

> <PUBCHEM_SHAPE_MULTIPOLES>
414.56
14.38
4.27
1.27
22.53
3.9
0.02
-5.05
-3.56
-2.04
1.81
-0.31
0.49
2.68

> <PUBCHEM_SHAPE_SELFOVERLAP>
780.206

> <PUBCHEM_SHAPE_VOLUME>
257.5

> <PUBCHEM_COORDINATE_TYPE>
2
5
10

$$$$
