13644663
  -OEChem-02172602313D

 68 72  0     1  0  0  0  0  0999 V2000
   -1.1655    1.9872    0.9530 O   0  0  0  0  0  0  0  0  0  0  0  0
    4.4416    0.7265    1.1187 O   0  0  0  0  0  0  0  0  0  0  0  0
   -0.2423    1.6588   -2.5840 O   0  0  0  0  0  0  0  0  0  0  0  0
   -2.9901    2.6973   -2.6679 O   0  0  0  0  0  0  0  0  0  0  0  0
   -3.4956    4.4478   -0.4351 O   0  0  0  0  0  0  0  0  0  0  0  0
    4.5696   -2.0046   -1.3343 O   0  0  0  0  0  0  0  0  0  0  0  0
   -1.5474   -0.7098    0.0702 O   0  0  0  0  0  0  0  0  0  0  0  0
    6.8633   -0.3078   -2.0490 O   0  0  0  0  0  0  0  0  0  0  0  0
    2.5081    1.7632    0.0565 O   0  0  0  0  0  0  0  0  0  0  0  0
    7.9955    0.9250    0.3148 O   0  0  0  0  0  0  0  0  0  0  0  0
   -1.7424    3.3653    3.2579 O   0  0  0  0  0  0  0  0  0  0  0  0
    2.6914   -2.9468    0.7415 O   0  0  0  0  0  0  0  0  0  0  0  0
    0.4170   -4.2164    0.7365 O   0  0  0  0  0  0  0  0  0  0  0  0
   -7.8152   -1.4464   -0.3265 O   0  0  0  0  0  0  0  0  0  0  0  0
   -0.3152    1.7796   -0.1795 C   0  0  2  0  0  0  0  0  0  0  0  0
   -1.1390    1.7033   -1.4742 C   0  0  1  0  0  0  0  0  0  0  0  0
   -2.0489    2.9263   -1.6177 C   0  0  2  0  0  0  0  0  0  0  0  0
   -2.8320    3.1908   -0.3319 C   0  0  1  0  0  0  0  0  0  0  0  0
   -1.8969    3.2117    0.8788 C   0  0  1  0  0  0  0  0  0  0  0  0
    0.4750    0.5091    0.0654 C   0  0  0  0  0  0  0  0  0  0  0  0
    4.1083   -0.5288    0.5148 C   0  0  2  0  0  0  0  0  0  0  0  0
    4.7952   -0.6798   -0.8530 C   0  0  1  0  0  0  0  0  0  0  0  0
    2.5981   -0.5998    0.3997 C   0  0  0  0  0  0  0  0  0  0  0  0
    6.3045   -0.4411   -0.7412 C   0  0  2  0  0  0  0  0  0  0  0  0
    1.8648    0.5659    0.1731 C   0  0  0  0  0  0  0  0  0  0  0  0
    6.6028    0.8407    0.0328 C   0  0  1  0  0  0  0  0  0  0  0  0
   -0.1802   -0.7168    0.1845 C   0  0  0  0  0  0  0  0  0  0  0  0
   -2.6677    3.3649    2.1860 C   0  0  0  0  0  0  0  0  0  0  0  0
    5.8391    0.8655    1.3474 C   0  0  0  0  0  0  0  0  0  0  0  0
    1.9452   -1.8272    0.5196 C   0  0  0  0  0  0  0  0  0  0  0  0
    0.5537   -1.8799    0.4110 C   0  0  0  0  0  0  0  0  0  0  0  0
   -0.1628   -3.1584    0.5345 C   0  0  0  0  0  0  0  0  0  0  0  0
   -2.2253   -1.9145    0.1775 C   0  0  0  0  0  0  0  0  0  0  0  0
   -1.6325   -3.0981    0.4016 C   0  0  0  0  0  0  0  0  0  0  0  0
   -3.6910   -1.7920    0.0453 C   0  0  0  0  0  0  0  0  0  0  0  0
   -4.4413   -2.8540   -0.4657 C   0  0  0  0  0  0  0  0  0  0  0  0
   -4.3340   -0.6130    0.4304 C   0  0  0  0  0  0  0  0  0  0  0  0
   -5.8256   -2.7377   -0.5909 C   0  0  0  0  0  0  0  0  0  0  0  0
   -5.7184   -0.4967    0.3051 C   0  0  0  0  0  0  0  0  0  0  0  0
   -6.4642   -1.5591   -0.2055 C   0  0  0  0  0  0  0  0  0  0  0  0
    0.3660    2.6365   -0.2486 H   0  0  0  0  0  0  0  0  0  0  0  0
   -1.7691    0.8156   -1.5510 H   0  0  0  0  0  0  0  0  0  0  0  0
   -1.4627    3.8064   -1.9104 H   0  0  0  0  0  0  0  0  0  0  0  0
   -3.6022    2.4208   -0.2050 H   0  0  0  0  0  0  0  0  0  0  0  0
   -1.1823    4.0430    0.8077 H   0  0  0  0  0  0  0  0  0  0  0  0
    4.4458   -1.3156    1.2026 H   0  0  0  0  0  0  0  0  0  0  0  0
    4.3655    0.0094   -1.5900 H   0  0  0  0  0  0  0  0  0  0  0  0
    6.8044   -1.3018   -0.2816 H   0  0  0  0  0  0  0  0  0  0  0  0
    6.3353    1.7142   -0.5733 H   0  0  0  0  0  0  0  0  0  0  0  0
   -3.3602    2.5313    2.3430 H   0  0  0  0  0  0  0  0  0  0  0  0
   -3.2312    4.3018    2.2169 H   0  0  0  0  0  0  0  0  0  0  0  0
    6.1853    0.0840    2.0356 H   0  0  0  0  0  0  0  0  0  0  0  0
    6.0078    1.8196    1.8588 H   0  0  0  0  0  0  0  0  0  0  0  0
   -0.7805    1.6588   -3.3941 H   0  0  0  0  0  0  0  0  0  0  0  0
   -3.4594    3.5325   -2.8316 H   0  0  0  0  0  0  0  0  0  0  0  0
   -4.1746    4.3679   -1.1257 H   0  0  0  0  0  0  0  0  0  0  0  0
    4.9415   -2.6275   -0.6868 H   0  0  0  0  0  0  0  0  0  0  0  0
    6.4284    0.4425   -2.4888 H   0  0  0  0  0  0  0  0  0  0  0  0
    3.4499    1.6326   -0.1324 H   0  0  0  0  0  0  0  0  0  0  0  0
    8.2422    0.1514    0.8500 H   0  0  0  0  0  0  0  0  0  0  0  0
   -2.1662   -4.0345    0.5128 H   0  0  0  0  0  0  0  0  0  0  0  0
   -1.2463    2.5297    3.2184 H   0  0  0  0  0  0  0  0  0  0  0  0
    2.1272   -3.7326    0.7968 H   0  0  0  0  0  0  0  0  0  0  0  0
   -3.9796   -3.7801   -0.7978 H   0  0  0  0  0  0  0  0  0  0  0  0
   -3.7794    0.2239    0.8458 H   0  0  0  0  0  0  0  0  0  0  0  0
   -6.3950   -3.5708   -0.9944 H   0  0  0  0  0  0  0  0  0  0  0  0
   -6.2103    0.4229    0.6101 H   0  0  0  0  0  0  0  0  0  0  0  0
   -8.1686   -2.2740   -0.6958 H   0  0  0  0  0  0  0  0  0  0  0  0
  1 15  1  0  0  0  0
  1 19  1  0  0  0  0
  2 21  1  0  0  0  0
  2 29  1  0  0  0  0
  3 16  1  0  0  0  0
  3 54  1  0  0  0  0
  4 17  1  0  0  0  0
  4 55  1  0  0  0  0
  5 18  1  0  0  0  0
  5 56  1  0  0  0  0
  6 22  1  0  0  0  0
  6 57  1  0  0  0  0
  7 27  1  0  0  0  0
  7 33  1  0  0  0  0
  8 24  1  0  0  0  0
  8 58  1  0  0  0  0
  9 25  1  0  0  0  0
  9 59  1  0  0  0  0
 10 26  1  0  0  0  0
 10 60  1  0  0  0  0
 11 28  1  0  0  0  0
 11 62  1  0  0  0  0
 12 30  1  0  0  0  0
 12 63  1  0  0  0  0
 13 32  2  0  0  0  0
 14 40  1  0  0  0  0
 14 68  1  0  0  0  0
 15 16  1  0  0  0  0
 15 20  1  0  0  0  0
 15 41  1  0  0  0  0
 16 17  1  0  0  0  0
 16 42  1  0  0  0  0
 17 18  1  0  0  0  0
 17 43  1  0  0  0  0
 18 19  1  0  0  0  0
 18 44  1  0  0  0  0
 19 28  1  0  0  0  0
 19 45  1  0  0  0  0
 20 25  1  0  0  0  0
 20 27  2  0  0  0  0
 21 22  1  0  0  0  0
 21 23  1  0  0  0  0
 21 46  1  0  0  0  0
 22 24  1  0  0  0  0
 22 47  1  0  0  0  0
 23 25  2  0  0  0  0
 23 30  1  0  0  0  0
 24 26  1  0  0  0  0
 24 48  1  0  0  0  0
 26 29  1  0  0  0  0
 26 49  1  0  0  0  0
 27 31  1  0  0  0  0
 28 50  1  0  0  0  0
 28 51  1  0  0  0  0
 29 52  1  0  0  0  0
 29 53  1  0  0  0  0
 30 31  2  0  0  0  0
 31 32  1  0  0  0  0
 32 34  1  0  0  0  0
 33 34  2  0  0  0  0
 33 35  1  0  0  0  0
 34 61  1  0  0  0  0
 35 36  2  0  0  0  0
 35 37  1  0  0  0  0
 36 38  1  0  0  0  0
 36 64  1  0  0  0  0
 37 39  2  0  0  0  0
 37 65  1  0  0  0  0
 38 40  2  0  0  0  0
 38 66  1  0  0  0  0
 39 40  1  0  0  0  0
 39 67  1  0  0  0  0
M  END
> <PUBCHEM_COMPOUND_CID>
13644663

> <PUBCHEM_CONFORMER_RMSD>
1

> <PUBCHEM_CONFORMER_DIVERSEORDER>
1
4
7
10
5
6
2
8
9
3

> <PUBCHEM_MMFF94_PARTIAL_CHARGES>
55
1 -0.56
10 -0.68
11 -0.68
12 -0.53
13 -0.57
14 -0.53
15 0.42
16 0.28
17 0.28
18 0.28
19 0.28
2 -0.56
20 -0.14
21 0.42
22 0.28
23 -0.14
24 0.28
25 0.08
26 0.28
27 0.08
28 0.28
29 0.28
3 -0.68
30 0.08
31 0.09
32 0.47
33 0.05
34 -0.14
35 0.03
36 -0.15
37 -0.15
38 -0.15
39 -0.15
4 -0.68
40 0.08
5 -0.68
54 0.4
55 0.4
56 0.4
57 0.4
58 0.4
59 0.45
6 -0.68
60 0.4
61 0.15
62 0.4
63 0.45
64 0.15
65 0.15
66 0.15
67 0.15
68 0.45
7 -0.16
8 -0.68
9 -0.53

> <PUBCHEM_EFFECTIVE_ROTOR_COUNT>
6.4

> <PUBCHEM_PHARMACOPHORE_FEATURES>
26
1 1 acceptor
1 10 acceptor
1 10 donor
1 11 acceptor
1 11 donor
1 12 donor
1 13 acceptor
1 14 donor
1 2 acceptor
1 3 acceptor
1 3 donor
1 4 acceptor
1 4 donor
1 5 acceptor
1 5 donor
1 6 acceptor
1 6 donor
1 7 acceptor
1 8 acceptor
1 8 donor
1 9 donor
6 1 15 16 17 18 19 rings
6 2 21 22 24 26 29 rings
6 20 23 25 27 30 31 rings
6 35 36 37 38 39 40 rings
6 7 27 31 32 33 34 rings

> <PUBCHEM_HEAVY_ATOM_COUNT>
40

> <PUBCHEM_ATOM_DEF_STEREO_COUNT>
9

> <PUBCHEM_ATOM_UDEF_STEREO_COUNT>
0

> <PUBCHEM_BOND_DEF_STEREO_COUNT>
0

> <PUBCHEM_BOND_UDEF_STEREO_COUNT>
0

> <PUBCHEM_ISOTOPIC_ATOM_COUNT>
0

> <PUBCHEM_COMPONENT_COUNT>
1

> <PUBCHEM_CACTVS_TAUTO_COUNT>
57

> <PUBCHEM_CONFORMER_ID>
00D0337700000001

> <PUBCHEM_MMFF94_ENERGY>
131.0773

> <PUBCHEM_FEATURE_SELFOVERLAP>
132.031

> <PUBCHEM_SHAPE_FINGERPRINT>
10050765 1 18265329500451606042
10190108 129 18335154072224972075
10930396 42 18048853455118081176
11607047 74 16766178716773240227
11646440 116 18340215201604873075
12156800 1 17681792351768276713
12440605 4 18193285096152795435
12788726 201 18335695052888184474
13140716 1 18046341109508503090
13383665 225 18264508294488924444
13540713 5 18116147767132169498
13560911 43 18114455751500687089
13617811 41 18187367661852341246
13631057 29 18410852157604552177
14028597 1 17531227466215192819
140371 6 18187940511442005442
14068700 675 18337673121799080717
14118638 360 18259703381462609298
14294032 229 18113901503283344196
14394314 77 18342463617411564737
15131766 46 15265069268223041672
15276724 80 18412829053451761783
15361156 5 18197786694688941070
15849732 13 18129662023404990455
16087824 20 18409445853228262837
16090146 7 17968678093597168554
18336668 15 18335421318370520177
18608769 82 18413103979040591576
18681886 176 18057595663523758731
20642791 13 18342749498227830006
21360443 126 17823683193144807973
21641784 216 17968103001301067159
22122407 14 15213307439053012558
22311459 1 18335135440831213970
244849 19 17346017988771552666
27425 322 17267800762738280953
283562 15 18409728452373400027
335352 9 18264204875685833182
350125 39 18408321094743503704
469060 322 17749114361413754181
50150288 127 17416398750499936073
550186 7 15625394411423316499
59755656 215 18412263952173262606
6004065 56 17984131836662281135
653340 110 18337663127462618577
7237137 82 18334295340262866005

> <PUBCHEM_SHAPE_MULTIPOLES>
741.01
15.75
5.06
1.7
13.26
2.16
-0.09
-5.01
-2.47
-6.64
0.83
-0.08
1.98
0.12

> <PUBCHEM_SHAPE_SELFOVERLAP>
1630.563

> <PUBCHEM_SHAPE_VOLUME>
393.3

> <PUBCHEM_COORDINATE_TYPE>
2
5
10

$$$$
