44257763
  -OEChem-02172602413D

 68 72  0     1  0  0  0  0  0999 V2000
   -2.1877    1.4771   -1.0711 O   0  0  0  0  0  0  0  0  0  0  0  0
   -2.6060    1.5782    1.7491 O   0  0  0  0  0  0  0  0  0  0  0  0
   -2.5774    4.3757    1.8833 O   0  0  0  0  0  0  0  0  0  0  0  0
   -0.9407    4.8765   -0.4492 O   0  0  0  0  0  0  0  0  0  0  0  0
   -2.0223   -0.7052    0.0214 O   0  0  0  0  0  0  0  0  0  0  0  0
    0.5815    1.7562   -1.1075 O   0  0  0  0  0  0  0  0  0  0  0  0
    5.3966   -1.0701   -1.2964 O   0  0  0  0  0  0  0  0  0  0  0  0
    4.2573   -0.6464    0.7339 O   0  0  0  0  0  0  0  0  0  0  0  0
   -6.3053    1.2180   -0.7597 O   0  0  0  0  0  0  0  0  0  0  0  0
    8.2808    0.9006    0.9494 O   0  0  0  0  0  0  0  0  0  0  0  0
    5.5117    1.8112    0.9647 O   0  0  0  0  0  0  0  0  0  0  0  0
    8.2316   -0.4962   -1.4171 O   0  0  0  0  0  0  0  0  0  0  0  0
   -6.0150   -3.4534   -0.0109 O   0  0  0  0  0  0  0  0  0  0  0  0
   -3.6184   -4.4329    0.4161 O   0  0  0  0  0  0  0  0  0  0  0  0
   -3.4087    2.3462    0.8487 C   0  0  1  0  0  0  0  0  0  0  0  0
   -2.7577    3.7150    0.6337 C   0  0  2  0  0  0  0  0  0  0  0  0
   -3.4954    1.6079   -0.4962 C   0  0  2  0  0  0  0  0  0  0  0  0
   -1.4165    3.5808   -0.0942 C   0  0  1  0  0  0  0  0  0  0  0  0
   -1.5803    2.7389   -1.3666 C   0  0  1  0  0  0  0  0  0  0  0  0
   -4.1488    0.2464   -0.3637 C   0  0  0  0  0  0  0  0  0  0  0  0
   -0.2355    2.4554   -2.0286 C   0  0  0  0  0  0  0  0  0  0  0  0
   -3.3764   -0.8860   -0.1042 C   0  0  0  0  0  0  0  0  0  0  0  0
   -5.5318    0.1259   -0.5018 C   0  0  0  0  0  0  0  0  0  0  0  0
    7.1657    0.0571    0.6759 C   0  0  1  0  0  0  0  0  0  0  0  0
    6.0292    0.8605    0.0404 C   0  0  1  0  0  0  0  0  0  0  0  0
    7.6103   -1.0662   -0.2621 C   0  0  1  0  0  0  0  0  0  0  0  0
   -3.9873   -2.1331    0.0170 C   0  0  0  0  0  0  0  0  0  0  0  0
    4.8976   -0.0708   -0.4041 C   0  0  1  0  0  0  0  0  0  0  0  0
    6.4138   -1.8960   -0.7173 C   0  0  0  0  0  0  0  0  0  0  0  0
   -6.1416   -1.1236   -0.3805 C   0  0  0  0  0  0  0  0  0  0  0  0
   -5.3717   -2.2579   -0.1205 C   0  0  0  0  0  0  0  0  0  0  0  0
   -3.1492   -3.3100    0.2929 C   0  0  0  0  0  0  0  0  0  0  0  0
   -1.2283   -1.8141    0.2709 C   0  0  0  0  0  0  0  0  0  0  0  0
   -1.6983   -3.0633    0.4153 C   0  0  0  0  0  0  0  0  0  0  0  0
    0.2111   -1.5064    0.3915 C   0  0  0  0  0  0  0  0  0  0  0  0
    2.9304   -0.9278    0.6215 C   0  0  0  0  0  0  0  0  0  0  0  0
    1.1275   -2.1084   -0.4706 C   0  0  0  0  0  0  0  0  0  0  0  0
    0.6543   -0.6149    1.3685 C   0  0  0  0  0  0  0  0  0  0  0  0
    2.4872   -1.8192   -0.3557 C   0  0  0  0  0  0  0  0  0  0  0  0
    2.0139   -0.3257    1.4836 C   0  0  0  0  0  0  0  0  0  0  0  0
   -4.3934    2.4692    1.3146 H   0  0  0  0  0  0  0  0  0  0  0  0
   -3.4273    4.3510    0.0407 H   0  0  0  0  0  0  0  0  0  0  0  0
   -4.0871    2.2031   -1.2045 H   0  0  0  0  0  0  0  0  0  0  0  0
   -0.6822    3.1414    0.5906 H   0  0  0  0  0  0  0  0  0  0  0  0
   -2.2033    3.2688   -2.0994 H   0  0  0  0  0  0  0  0  0  0  0  0
    0.2703    3.3781   -2.3281 H   0  0  0  0  0  0  0  0  0  0  0  0
   -0.3704    1.8172   -2.9080 H   0  0  0  0  0  0  0  0  0  0  0  0
   -3.1401    0.8256    2.0544 H   0  0  0  0  0  0  0  0  0  0  0  0
   -3.4484    4.4357    2.3113 H   0  0  0  0  0  0  0  0  0  0  0  0
   -1.5898    5.2819   -1.0491 H   0  0  0  0  0  0  0  0  0  0  0  0
    6.8335   -0.3552    1.6365 H   0  0  0  0  0  0  0  0  0  0  0  0
    6.4218    1.4182   -0.8187 H   0  0  0  0  0  0  0  0  0  0  0  0
    8.3613   -1.6960    0.2270 H   0  0  0  0  0  0  0  0  0  0  0  0
    4.1669    0.5323   -0.9602 H   0  0  0  0  0  0  0  0  0  0  0  0
    6.7171   -2.6087   -1.4913 H   0  0  0  0  0  0  0  0  0  0  0  0
    5.9881   -2.4682    0.1146 H   0  0  0  0  0  0  0  0  0  0  0  0
   -7.2195   -1.2203   -0.4883 H   0  0  0  0  0  0  0  0  0  0  0  0
    1.4251    1.5703   -1.5538 H   0  0  0  0  0  0  0  0  0  0  0  0
   -1.0583   -3.9137    0.6227 H   0  0  0  0  0  0  0  0  0  0  0  0
   -7.2356    0.9416   -0.8224 H   0  0  0  0  0  0  0  0  0  0  0  0
    8.9751    0.3487    1.3482 H   0  0  0  0  0  0  0  0  0  0  0  0
    4.7928    2.2922    0.5201 H   0  0  0  0  0  0  0  0  0  0  0  0
    8.5239   -1.2300   -1.9843 H   0  0  0  0  0  0  0  0  0  0  0  0
    0.8012   -2.8047   -1.2394 H   0  0  0  0  0  0  0  0  0  0  0  0
   -0.0466   -0.1378    2.0491 H   0  0  0  0  0  0  0  0  0  0  0  0
    3.1830   -2.3120   -1.0274 H   0  0  0  0  0  0  0  0  0  0  0  0
    2.3536    0.3700    2.2459 H   0  0  0  0  0  0  0  0  0  0  0  0
   -5.3816   -4.1657    0.1657 H   0  0  0  0  0  0  0  0  0  0  0  0
  1 17  1  0  0  0  0
  1 19  1  0  0  0  0
  2 15  1  0  0  0  0
  2 48  1  0  0  0  0
  3 16  1  0  0  0  0
  3 49  1  0  0  0  0
  4 18  1  0  0  0  0
  4 50  1  0  0  0  0
  5 22  1  0  0  0  0
  5 33  1  0  0  0  0
  6 21  1  0  0  0  0
  6 58  1  0  0  0  0
  7 28  1  0  0  0  0
  7 29  1  0  0  0  0
  8 28  1  0  0  0  0
  8 36  1  0  0  0  0
  9 23  1  0  0  0  0
  9 60  1  0  0  0  0
 10 24  1  0  0  0  0
 10 61  1  0  0  0  0
 11 25  1  0  0  0  0
 11 62  1  0  0  0  0
 12 26  1  0  0  0  0
 12 63  1  0  0  0  0
 13 31  1  0  0  0  0
 13 68  1  0  0  0  0
 14 32  2  0  0  0  0
 15 16  1  0  0  0  0
 15 17  1  0  0  0  0
 15 41  1  0  0  0  0
 16 18  1  0  0  0  0
 16 42  1  0  0  0  0
 17 20  1  0  0  0  0
 17 43  1  0  0  0  0
 18 19  1  0  0  0  0
 18 44  1  0  0  0  0
 19 21  1  0  0  0  0
 19 45  1  0  0  0  0
 20 22  1  0  0  0  0
 20 23  2  0  0  0  0
 21 46  1  0  0  0  0
 21 47  1  0  0  0  0
 22 27  2  0  0  0  0
 23 30  1  0  0  0  0
 24 25  1  0  0  0  0
 24 26  1  0  0  0  0
 24 51  1  0  0  0  0
 25 28  1  0  0  0  0
 25 52  1  0  0  0  0
 26 29  1  0  0  0  0
 26 53  1  0  0  0  0
 27 31  1  0  0  0  0
 27 32  1  0  0  0  0
 28 54  1  0  0  0  0
 29 55  1  0  0  0  0
 29 56  1  0  0  0  0
 30 31  2  0  0  0  0
 30 57  1  0  0  0  0
 32 34  1  0  0  0  0
 33 34  2  0  0  0  0
 33 35  1  0  0  0  0
 34 59  1  0  0  0  0
 35 37  2  0  0  0  0
 35 38  1  0  0  0  0
 36 39  2  0  0  0  0
 36 40  1  0  0  0  0
 37 39  1  0  0  0  0
 37 64  1  0  0  0  0
 38 40  2  0  0  0  0
 38 65  1  0  0  0  0
 39 66  1  0  0  0  0
 40 67  1  0  0  0  0
M  END
> <PUBCHEM_COMPOUND_CID>
44257763

> <PUBCHEM_CONFORMER_RMSD>
1

> <PUBCHEM_CONFORMER_DIVERSEORDER>
1
194
187
214
258
168
204
97
59
149
228
110
63
245
213
270
158
225
153
244
144
266
141
160
85
154
91
116
197
25
170
152
239
78
182
143
272
169
88
162
264
122
164
139
230
45
35
131
193
226
166
132
83
53
135
232
215
76
43
269
80
113
178
222
142
124
57
209
93
171
16
254
72
10
174
100
114
46
263
210
155
167
237
11
202
87
184
242
229
21
257
73
188
89
268
101
161
55
103
107
173
82
175
240
54
140
223
198
74
206
118
112
247
17
227
252
218
221
205
189
196
47
36
84
56
123
243
42
28
224
271
251
183
127
195
50
20
233
147
176
31
58
235
98
81
24
38
150
69
130
208
94
39
246
190
23
217
104
148
265
146
126
262
186
219
136
200
199
64
177
151
157
179
105
30
134
96
29
128
102
32
260
22
231
9
207
33
236
212
90
125
48
248
12
156
234
249
34
3
261
68
111
95
49
77
172
8
163
273
133
117
5
71
106
27
14
138
120
67
191
119
92
115
250
6
79
41
4
44
180
211
109
18
259
256
37
181
62
145
192
185
220
99
121
137
60
241
52
216
51
267
15
65
61
238
75
13
165
26
19
203
7
108
2
253
66
129
40
255
86
70
159
201

> <PUBCHEM_MMFF94_PARTIAL_CHARGES>
55
1 -0.56
10 -0.68
11 -0.68
12 -0.68
13 -0.53
14 -0.57
15 0.28
16 0.28
17 0.42
18 0.28
19 0.28
2 -0.68
20 -0.14
21 0.28
22 0.08
23 0.08
24 0.28
25 0.28
26 0.28
27 0.09
28 0.56
29 0.28
3 -0.68
30 -0.15
31 0.08
32 0.47
33 0.05
34 -0.14
35 0.03
36 0.08
37 -0.15
38 -0.15
39 -0.15
4 -0.68
40 -0.15
48 0.4
49 0.4
5 -0.16
50 0.4
57 0.15
58 0.4
59 0.15
6 -0.68
60 0.45
61 0.4
62 0.4
63 0.4
64 0.15
65 0.15
66 0.15
67 0.15
68 0.45
7 -0.56
8 -0.36
9 -0.53

> <PUBCHEM_EFFECTIVE_ROTOR_COUNT>
7.4

> <PUBCHEM_PHARMACOPHORE_FEATURES>
26
1 1 acceptor
1 10 acceptor
1 10 donor
1 11 acceptor
1 11 donor
1 12 acceptor
1 12 donor
1 13 donor
1 14 acceptor
1 2 acceptor
1 2 donor
1 3 acceptor
1 3 donor
1 4 acceptor
1 4 donor
1 5 acceptor
1 6 acceptor
1 6 donor
1 7 acceptor
1 8 acceptor
1 9 donor
6 1 15 16 17 18 19 rings
6 20 22 23 27 30 31 rings
6 35 36 37 38 39 40 rings
6 5 22 27 32 33 34 rings
6 7 24 25 26 28 29 rings

> <PUBCHEM_HEAVY_ATOM_COUNT>
40

> <PUBCHEM_ATOM_DEF_STEREO_COUNT>
5

> <PUBCHEM_ATOM_UDEF_STEREO_COUNT>
4

> <PUBCHEM_BOND_DEF_STEREO_COUNT>
0

> <PUBCHEM_BOND_UDEF_STEREO_COUNT>
0

> <PUBCHEM_ISOTOPIC_ATOM_COUNT>
0

> <PUBCHEM_COMPONENT_COUNT>
1

> <PUBCHEM_CACTVS_TAUTO_COUNT>
12

> <PUBCHEM_CONFORMER_ID>
02A351E300000001

> <PUBCHEM_MMFF94_ENERGY>
135.2831

> <PUBCHEM_FEATURE_SELFOVERLAP>
132.11

> <PUBCHEM_SHAPE_FINGERPRINT>
100830 39 18409729526684474658
10290309 65 18042111069275665167
10454371 7 18410296900206440564
10670039 82 18337108973876460920
1100329 8 18408604778155882455
11434127 23 18128814149067188629
12104220 1 18411696565164995532
12788726 201 18187920664640600955
13782708 43 17917993875852792590
13811026 1 18410005572068253318
13911987 19 18189036626662650399
14068700 675 18337672018182142869
14394314 77 18337674105895652693
14856354 85 18337115656281980911
15001296 14 18115303513736997892
15131766 46 15264780087547403442
15183329 4 18410014308849742146
15297060 5 18272091544364681563
15328684 2 17604692405979420088
15400415 2 17689151206667798348
15419008 145 18335688409791758050
15419008 47 18130504223493947544
15604295 49 18270959172734278408
15876981 60 18261115226494638383
15968369 153 18201152278090734796
16090146 7 17022916661675381866
18336668 15 17967812786619705791
19958102 18 18341055095223266094
21796203 349 17972071186691157681
21927370 108 18263379113053247675
23559900 14 18269546294963156857
249057 25 17894918434426946254
25019877 29 17846223292629861191
3418910 222 18117853307472618380
354706 132 18267877077699596388
4197921 191 18186802466295531942
469060 322 16805321067873791438
497634 4 18339078190037172149
50677037 204 18336271158526847336
6700243 42 17768850694022557886

> <PUBCHEM_SHAPE_MULTIPOLES>
741.01
18.82
5.16
1.3
37.85
3.09
0.04
-5.81
-1.86
-8.22
0.49
0.47
0.9
0.49

> <PUBCHEM_SHAPE_SELFOVERLAP>
1625.092

> <PUBCHEM_SHAPE_VOLUME>
393.7

> <PUBCHEM_COORDINATE_TYPE>
2
5
10

$$$$
