10091390
  -OEChem-02172602463D

 52 54  0     1  0  0  0  0  0999 V2000
    1.5473   -1.5689    0.5417 S   0  0  0  0  0  0  0  0  0  0  0  0
    2.1789   -2.6988   -0.1226 O   0  0  0  0  0  0  0  0  0  0  0  0
    1.7875   -1.3620    1.9617 O   0  0  0  0  0  0  0  0  0  0  0  0
   -0.1554   -1.6252    0.2575 N   0  0  2  0  0  0  0  0  0  0  0  0
   -1.2465   -4.1999   -2.2300 N   0  0  0  0  0  0  0  0  0  0  0  0
    5.5865    2.0846    0.3558 N   0  0  0  0  0  0  0  0  0  0  0  0
   -1.0415   -0.9466    1.2372 C   0  0  0  0  0  0  0  0  0  0  0  0
   -2.3008   -0.4333    0.5474 C   0  0  0  0  0  0  0  0  0  0  0  0
   -0.7330   -2.9079   -0.2185 C   0  0  0  0  0  0  0  0  0  0  0  0
    2.0411   -0.1070   -0.3028 C   0  0  0  0  0  0  0  0  0  0  0  0
   -3.2598    0.2620    1.5195 C   0  0  0  0  0  0  0  0  0  0  0  0
    3.2259    0.6103   -0.0702 C   0  0  0  0  0  0  0  0  0  0  0  0
   -0.6804   -2.9499   -1.7388 C   0  0  0  0  0  0  0  0  0  0  0  0
    3.4871    1.7689   -0.8305 C   0  0  0  0  0  0  0  0  0  0  0  0
    1.1321    0.3184   -1.2731 C   0  0  0  0  0  0  0  0  0  0  0  0
    4.1569    0.2093    0.8948 C   0  0  0  0  0  0  0  0  0  0  0  0
   -4.4911    0.7731    0.8150 C   0  0  0  0  0  0  0  0  0  0  0  0
    2.5652    2.1882   -1.8041 C   0  0  0  0  0  0  0  0  0  0  0  0
    1.3937    1.4634   -2.0220 C   0  0  0  0  0  0  0  0  0  0  0  0
    4.6749    2.4557   -0.5713 C   0  0  0  0  0  0  0  0  0  0  0  0
    5.3030    0.9709    1.0643 C   0  0  0  0  0  0  0  0  0  0  0  0
    4.0503   -0.9808    1.7883 C   0  0  0  0  0  0  0  0  0  0  0  0
   -4.4922    2.0570    0.2906 C   0  0  0  0  0  0  0  0  0  0  0  0
   -5.6023   -0.0490    0.7025 C   0  0  0  0  0  0  0  0  0  0  0  0
   -5.6310    2.5299   -0.3613 C   0  0  0  0  0  0  0  0  0  0  0  0
   -6.7412    0.4239    0.0504 C   0  0  0  0  0  0  0  0  0  0  0  0
   -6.7553    1.7135   -0.4815 C   0  0  0  0  0  0  0  0  0  0  0  0
   -1.2917   -1.6373    2.0507 H   0  0  0  0  0  0  0  0  0  0  0  0
   -0.5167   -0.0907    1.6769 H   0  0  0  0  0  0  0  0  0  0  0  0
   -2.0129    0.2672   -0.2479 H   0  0  0  0  0  0  0  0  0  0  0  0
   -2.8397   -1.2437    0.0444 H   0  0  0  0  0  0  0  0  0  0  0  0
   -1.7601   -3.0540    0.1321 H   0  0  0  0  0  0  0  0  0  0  0  0
   -0.1684   -3.7432    0.2149 H   0  0  0  0  0  0  0  0  0  0  0  0
   -2.7497    1.0949    2.0202 H   0  0  0  0  0  0  0  0  0  0  0  0
   -3.5533   -0.4318    2.3178 H   0  0  0  0  0  0  0  0  0  0  0  0
   -1.2527   -2.1145   -2.1571 H   0  0  0  0  0  0  0  0  0  0  0  0
    0.3479   -2.8525   -2.1021 H   0  0  0  0  0  0  0  0  0  0  0  0
    0.2203   -0.2073   -1.5250 H   0  0  0  0  0  0  0  0  0  0  0  0
    2.7546    3.0788   -2.3988 H   0  0  0  0  0  0  0  0  0  0  0  0
    0.6892    1.7891   -2.7820 H   0  0  0  0  0  0  0  0  0  0  0  0
    4.9369    3.3555   -1.1211 H   0  0  0  0  0  0  0  0  0  0  0  0
    6.0616    0.7187    1.7997 H   0  0  0  0  0  0  0  0  0  0  0  0
    3.8824   -1.9404    1.3056 H   0  0  0  0  0  0  0  0  0  0  0  0
    3.5755   -0.7479    2.7457 H   0  0  0  0  0  0  0  0  0  0  0  0
    5.0732   -1.1946    2.1486 H   0  0  0  0  0  0  0  0  0  0  0  0
   -3.6206    2.6996    0.3771 H   0  0  0  0  0  0  0  0  0  0  0  0
   -5.6001   -1.0553    1.1116 H   0  0  0  0  0  0  0  0  0  0  0  0
   -0.7035   -4.9858   -1.8745 H   0  0  0  0  0  0  0  0  0  0  0  0
   -1.1648   -4.2323   -3.2454 H   0  0  0  0  0  0  0  0  0  0  0  0
   -5.6419    3.5336   -0.7760 H   0  0  0  0  0  0  0  0  0  0  0  0
   -7.6166   -0.2119   -0.0438 H   0  0  0  0  0  0  0  0  0  0  0  0
   -7.6419    2.0816   -0.9894 H   0  0  0  0  0  0  0  0  0  0  0  0
  1  2  2  0  0  0  0
  1  3  2  0  0  0  0
  1  4  1  0  0  0  0
  1 10  1  0  0  0  0
  4  7  1  0  0  0  0
  4  9  1  0  0  0  0
  5 13  1  0  0  0  0
  5 48  1  0  0  0  0
  5 49  1  0  0  0  0
  6 20  2  0  0  0  0
  6 21  1  0  0  0  0
  7  8  1  0  0  0  0
  7 28  1  0  0  0  0
  7 29  1  0  0  0  0
  8 11  1  0  0  0  0
  8 30  1  0  0  0  0
  8 31  1  0  0  0  0
  9 13  1  0  0  0  0
  9 32  1  0  0  0  0
  9 33  1  0  0  0  0
 10 12  1  0  0  0  0
 10 15  2  0  0  0  0
 11 17  1  0  0  0  0
 11 34  1  0  0  0  0
 11 35  1  0  0  0  0
 12 14  2  0  0  0  0
 12 16  1  0  0  0  0
 13 36  1  0  0  0  0
 13 37  1  0  0  0  0
 14 18  1  0  0  0  0
 14 20  1  0  0  0  0
 15 19  1  0  0  0  0
 15 38  1  0  0  0  0
 16 21  2  0  0  0  0
 16 22  1  0  0  0  0
 17 23  2  0  0  0  0
 17 24  1  0  0  0  0
 18 19  2  0  0  0  0
 18 39  1  0  0  0  0
 19 40  1  0  0  0  0
 20 41  1  0  0  0  0
 21 42  1  0  0  0  0
 22 43  1  0  0  0  0
 22 44  1  0  0  0  0
 22 45  1  0  0  0  0
 23 25  1  0  0  0  0
 23 46  1  0  0  0  0
 24 26  2  0  0  0  0
 24 47  1  0  0  0  0
 25 27  2  0  0  0  0
 25 50  1  0  0  0  0
 26 27  1  0  0  0  0
 26 51  1  0  0  0  0
 27 52  1  0  0  0  0
M  END
> <PUBCHEM_COMPOUND_CID>
10091390

> <PUBCHEM_CONFORMER_RMSD>
1

> <PUBCHEM_CONFORMER_DIVERSEORDER>
1
4
2
7
19
11
6
13
5
12
17
10
21
3
18
8
15
22
16
20
14
9

> <PUBCHEM_MMFF94_PARTIAL_CHARGES>
36
1 1.45
10 -0.01
11 0.14
13 0.27
15 -0.15
16 -0.14
17 -0.14
18 -0.15
19 -0.15
2 -0.65
20 0.16
21 0.16
22 0.14
23 -0.15
24 -0.15
25 -0.15
26 -0.15
27 -0.15
3 -0.65
38 0.15
39 0.15
4 -0.85
40 0.15
41 0.15
42 0.15
46 0.15
47 0.15
48 0.36
49 0.36
5 -0.99
50 0.15
51 0.15
52 0.15
6 -0.62
7 0.36
9 0.36

> <PUBCHEM_EFFECTIVE_ROTOR_COUNT>
8

> <PUBCHEM_PHARMACOPHORE_FEATURES>
8
1 2 acceptor
1 3 acceptor
1 5 cation
1 5 donor
1 6 acceptor
6 10 12 14 15 18 19 rings
6 17 23 24 25 26 27 rings
6 6 12 14 16 20 21 rings

> <PUBCHEM_HEAVY_ATOM_COUNT>
27

> <PUBCHEM_ATOM_DEF_STEREO_COUNT>
0

> <PUBCHEM_ATOM_UDEF_STEREO_COUNT>
0

> <PUBCHEM_BOND_DEF_STEREO_COUNT>
0

> <PUBCHEM_BOND_UDEF_STEREO_COUNT>
0

> <PUBCHEM_ISOTOPIC_ATOM_COUNT>
0

> <PUBCHEM_COMPONENT_COUNT>
1

> <PUBCHEM_CACTVS_TAUTO_COUNT>
1

> <PUBCHEM_CONFORMER_ID>
0099FB7E00000001

> <PUBCHEM_MMFF94_ENERGY>
96.2929

> <PUBCHEM_FEATURE_SELFOVERLAP>
40.641

> <PUBCHEM_SHAPE_FINGERPRINT>
10763959 59 18189343389578695630
11961588 58 16916783019878816616
12107183 9 18114734963356869130
12422481 6 17967808319210548445
12633257 1 16588032316002273001
12788726 201 18052813942867174991
13911987 19 18059860571529307969
14223995 32 16446421656897003501
14251764 38 18115030689098805753
14294032 229 18128544936939811347
15238133 3 17313114059458968980
15420108 30 18335132137858983962
20157964 124 18261393317595801193
20511986 3 18261945349199426945
20715895 44 18114743712274095049
21033648 29 15430029930057289903
21197605 99 18186806898248159249
21304303 282 18128244786891546630
21792964 463 16665444725220840503
21860390 5 17968389952661805551
22950370 63 10303814276731351713
23559900 14 18051141298435061139
24893992 56 11169909491217322655
2838139 119 18335700563695065585
439807 62 12751243588703289529
5104073 3 17822865186864572681
513532 50 18341905047786331742

> <PUBCHEM_SHAPE_MULTIPOLES>
532.82
14.74
3.66
1.8
18.89
2.6
-0.49
-13.13
3.38
-0.22
-2.32
-0.9
0.8
-1.29

> <PUBCHEM_SHAPE_SELFOVERLAP>
1124.291

> <PUBCHEM_SHAPE_VOLUME>
298.8

> <PUBCHEM_COORDINATE_TYPE>
2
5
10

$$$$
