44562998
  -OEChem-02172602373D

 72 76  0     1  0  0  0  0  0999 V2000
   -0.4482    1.7348    1.3728 O   0  0  0  0  0  0  0  0  0  0  0  0
    2.4947    1.8050   -1.7478 O   0  0  0  0  0  0  0  0  0  0  0  0
    1.5685    0.8261    1.5231 O   0  0  0  0  0  0  0  0  0  0  0  0
    2.8187   -0.6970   -0.4465 O   0  0  0  0  0  0  0  0  0  0  0  0
   -3.0828   -2.7118    1.1363 O   0  0  0  0  0  0  0  0  0  0  0  0
    3.0316   -2.6945   -1.4700 O   0  0  0  0  0  0  0  0  0  0  0  0
    0.2995    1.0403   -0.8877 C   0  0  1  0  0  0  0  0  0  0  0  0
   -0.7430    1.8155   -0.0331 C   0  0  1  0  0  0  0  0  0  0  0  0
    1.6085    1.8575   -0.6263 C   0  0  2  0  0  0  0  0  0  0  0  0
   -2.1773    1.2936   -0.2543 C   0  0  1  0  0  0  0  0  0  0  0  0
   -2.2676   -0.2358    0.0680 C   0  0  2  0  0  0  0  0  0  0  0  0
   -0.4464    3.2665   -0.4022 C   0  0  0  0  0  0  0  0  0  0  0  0
    0.2856   -0.4354   -0.4530 C   0  0  0  0  0  0  0  0  0  0  0  0
    1.0977    3.3212   -0.4760 C   0  0  0  0  0  0  0  0  0  0  0  0
   -1.1203   -1.0520   -0.6019 C   0  0  0  0  0  0  0  0  0  0  0  0
    2.4513    1.4336    0.5816 C   0  0  2  0  0  0  0  0  0  0  0  0
   -3.7093   -0.7915   -0.2465 C   0  0  1  0  0  0  0  0  0  0  0  0
   -0.0112    1.0912   -2.4210 C   0  0  0  0  0  0  0  0  0  0  0  0
   -3.2114    2.0801    0.5690 C   0  0  0  0  0  0  0  0  0  0  0  0
   -4.7943    0.1430    0.3015 C   0  0  0  0  0  0  0  0  0  0  0  0
    3.5002    0.4123    0.1649 C   0  0  1  0  0  0  0  0  0  0  0  0
   -4.5509    1.4191    0.6475 C   0  0  0  0  0  0  0  0  0  0  0  0
    3.0993    2.6524    1.2322 C   0  0  0  0  0  0  0  0  0  0  0  0
   -3.9204   -1.0044   -1.7625 C   0  0  0  0  0  0  0  0  0  0  0  0
   -3.9508   -2.1360    0.4796 C   0  0  0  0  0  0  0  0  0  0  0  0
    4.3048   -0.0776    1.3555 C   0  0  0  0  0  0  0  0  0  0  0  0
   -6.1322   -0.4030    0.4851 C   0  0  0  0  0  0  0  0  0  0  0  0
   -5.3281   -2.7645    0.3326 C   0  0  0  0  0  0  0  0  0  0  0  0
   -6.3845   -1.7191    0.4792 C   0  0  0  0  0  0  0  0  0  0  0  0
    5.2052   -1.1986    0.9142 C   0  0  0  0  0  0  0  0  0  0  0  0
    3.5077   -1.8308   -0.7396 C   0  0  0  0  0  0  0  0  0  0  0  0
    4.8530   -1.9960   -0.1142 C   0  0  0  0  0  0  0  0  0  0  0  0
    6.4676   -1.3331    1.7197 C   0  0  0  0  0  0  0  0  0  0  0  0
    5.6848   -3.1110   -0.6803 C   0  0  0  0  0  0  0  0  0  0  0  0
   -2.4458    1.4463   -1.3055 H   0  0  0  0  0  0  0  0  0  0  0  0
   -2.1051   -0.3347    1.1529 H   0  0  0  0  0  0  0  0  0  0  0  0
   -0.8813    3.5353   -1.3713 H   0  0  0  0  0  0  0  0  0  0  0  0
   -0.8181    3.9881    0.3338 H   0  0  0  0  0  0  0  0  0  0  0  0
    0.8726   -1.0317   -1.1542 H   0  0  0  0  0  0  0  0  0  0  0  0
    0.5822   -0.6836    0.5610 H   0  0  0  0  0  0  0  0  0  0  0  0
    1.3796    3.9127   -1.3574 H   0  0  0  0  0  0  0  0  0  0  0  0
    1.4237    3.9198    0.3685 H   0  0  0  0  0  0  0  0  0  0  0  0
   -1.3241   -1.1797   -1.6695 H   0  0  0  0  0  0  0  0  0  0  0  0
   -1.0930   -2.0674   -0.1909 H   0  0  0  0  0  0  0  0  0  0  0  0
    0.0817    2.1015   -2.8329 H   0  0  0  0  0  0  0  0  0  0  0  0
   -1.0158    0.7441   -2.6719 H   0  0  0  0  0  0  0  0  0  0  0  0
    0.6798    0.4515   -2.9825 H   0  0  0  0  0  0  0  0  0  0  0  0
   -3.3355    3.0763    0.1276 H   0  0  0  0  0  0  0  0  0  0  0  0
   -2.8799    2.2318    1.6012 H   0  0  0  0  0  0  0  0  0  0  0  0
   -0.8677    2.4794    1.8338 H   0  0  0  0  0  0  0  0  0  0  0  0
    4.2033    0.8359   -0.5661 H   0  0  0  0  0  0  0  0  0  0  0  0
    2.5661    0.8822   -2.0447 H   0  0  0  0  0  0  0  0  0  0  0  0
   -5.3517    2.0337    1.0542 H   0  0  0  0  0  0  0  0  0  0  0  0
    3.6178    3.2943    0.5120 H   0  0  0  0  0  0  0  0  0  0  0  0
    3.8409    2.3751    1.9863 H   0  0  0  0  0  0  0  0  0  0  0  0
    2.3925    3.2279    1.8408 H   0  0  0  0  0  0  0  0  0  0  0  0
   -4.9704   -1.1852   -2.0197 H   0  0  0  0  0  0  0  0  0  0  0  0
   -3.6036   -0.1352   -2.3469 H   0  0  0  0  0  0  0  0  0  0  0  0
   -3.3680   -1.8796   -2.1225 H   0  0  0  0  0  0  0  0  0  0  0  0
    1.9876    0.8402    2.3997 H   0  0  0  0  0  0  0  0  0  0  0  0
    3.6751   -0.4614    2.1659 H   0  0  0  0  0  0  0  0  0  0  0  0
    4.9333    0.7224    1.7567 H   0  0  0  0  0  0  0  0  0  0  0  0
   -6.9530    0.2889    0.6533 H   0  0  0  0  0  0  0  0  0  0  0  0
   -5.4510   -3.5128    1.1230 H   0  0  0  0  0  0  0  0  0  0  0  0
   -5.4012   -3.2660   -0.6364 H   0  0  0  0  0  0  0  0  0  0  0  0
   -7.4074   -2.0595    0.6141 H   0  0  0  0  0  0  0  0  0  0  0  0
    6.2328   -1.3145    2.7898 H   0  0  0  0  0  0  0  0  0  0  0  0
    7.0039   -2.2668    1.5364 H   0  0  0  0  0  0  0  0  0  0  0  0
    7.1449   -0.5012    1.5016 H   0  0  0  0  0  0  0  0  0  0  0  0
    5.3171   -4.0783   -0.3234 H   0  0  0  0  0  0  0  0  0  0  0  0
    6.7438   -3.0272   -0.4240 H   0  0  0  0  0  0  0  0  0  0  0  0
    5.6371   -3.1067   -1.7751 H   0  0  0  0  0  0  0  0  0  0  0  0
  1  8  1  0  0  0  0
  1 50  1  0  0  0  0
  2  9  1  0  0  0  0
  2 52  1  0  0  0  0
  3 16  1  0  0  0  0
  3 60  1  0  0  0  0
  4 21  1  0  0  0  0
  4 31  1  0  0  0  0
  5 25  2  0  0  0  0
  6 31  2  0  0  0  0
  7  8  1  0  0  0  0
  7  9  1  0  0  0  0
  7 13  1  0  0  0  0
  7 18  1  0  0  0  0
  8 10  1  0  0  0  0
  8 12  1  0  0  0  0
  9 14  1  0  0  0  0
  9 16  1  0  0  0  0
 10 11  1  0  0  0  0
 10 19  1  0  0  0  0
 10 35  1  0  0  0  0
 11 15  1  0  0  0  0
 11 17  1  0  0  0  0
 11 36  1  0  0  0  0
 12 14  1  0  0  0  0
 12 37  1  0  0  0  0
 12 38  1  0  0  0  0
 13 15  1  0  0  0  0
 13 39  1  0  0  0  0
 13 40  1  0  0  0  0
 14 41  1  0  0  0  0
 14 42  1  0  0  0  0
 15 43  1  0  0  0  0
 15 44  1  0  0  0  0
 16 21  1  0  0  0  0
 16 23  1  0  0  0  0
 17 20  1  0  0  0  0
 17 24  1  0  0  0  0
 17 25  1  0  0  0  0
 18 45  1  0  0  0  0
 18 46  1  0  0  0  0
 18 47  1  0  0  0  0
 19 22  1  0  0  0  0
 19 48  1  0  0  0  0
 19 49  1  0  0  0  0
 20 22  2  0  0  0  0
 20 27  1  0  0  0  0
 21 26  1  0  0  0  0
 21 51  1  0  0  0  0
 22 53  1  0  0  0  0
 23 54  1  0  0  0  0
 23 55  1  0  0  0  0
 23 56  1  0  0  0  0
 24 57  1  0  0  0  0
 24 58  1  0  0  0  0
 24 59  1  0  0  0  0
 25 28  1  0  0  0  0
 26 30  1  0  0  0  0
 26 61  1  0  0  0  0
 26 62  1  0  0  0  0
 27 29  2  0  0  0  0
 27 63  1  0  0  0  0
 28 29  1  0  0  0  0
 28 64  1  0  0  0  0
 28 65  1  0  0  0  0
 29 66  1  0  0  0  0
 30 32  2  0  0  0  0
 30 33  1  0  0  0  0
 31 32  1  0  0  0  0
 32 34  1  0  0  0  0
 33 67  1  0  0  0  0
 33 68  1  0  0  0  0
 33 69  1  0  0  0  0
 34 70  1  0  0  0  0
 34 71  1  0  0  0  0
 34 72  1  0  0  0  0
M  END
> <PUBCHEM_COMPOUND_CID>
44562998

> <PUBCHEM_CONFORMER_RMSD>
0.8

> <PUBCHEM_CONFORMER_DIVERSEORDER>
3
4
2
1

> <PUBCHEM_MMFF94_PARTIAL_CHARGES>
30
1 -0.68
16 0.28
17 0.2
19 0.14
2 -0.68
20 -0.14
21 0.28
22 -0.29
25 0.45
26 0.14
27 -0.15
28 0.2
29 -0.29
3 -0.68
30 -0.28
31 0.71
32 -0.12
33 0.14
34 0.14
4 -0.43
5 -0.57
50 0.4
52 0.4
53 0.15
6 -0.57
60 0.4
63 0.15
66 0.15
8 0.28
9 0.28

> <PUBCHEM_EFFECTIVE_ROTOR_COUNT>
4

> <PUBCHEM_PHARMACOPHORE_FEATURES>
13
1 1 acceptor
1 1 donor
1 2 acceptor
1 2 donor
1 3 acceptor
1 3 donor
1 5 acceptor
1 6 acceptor
5 7 8 9 12 14 rings
6 10 11 17 19 20 22 rings
6 17 20 25 27 28 29 rings
6 4 21 26 30 31 32 rings
6 7 8 10 11 13 15 rings

> <PUBCHEM_HEAVY_ATOM_COUNT>
34

> <PUBCHEM_ATOM_DEF_STEREO_COUNT>
8

> <PUBCHEM_ATOM_UDEF_STEREO_COUNT>
0

> <PUBCHEM_BOND_DEF_STEREO_COUNT>
0

> <PUBCHEM_BOND_UDEF_STEREO_COUNT>
0

> <PUBCHEM_ISOTOPIC_ATOM_COUNT>
0

> <PUBCHEM_COMPONENT_COUNT>
1

> <PUBCHEM_CACTVS_TAUTO_COUNT>
4

> <PUBCHEM_CONFORMER_ID>
02A7FA3600000003

> <PUBCHEM_MMFF94_ENERGY>
166.7137

> <PUBCHEM_FEATURE_SELFOVERLAP>
66.211

> <PUBCHEM_SHAPE_FINGERPRINT>
10319926 262 18202006486628981425
10554248 39 18188765189103671039
11135609 12 18408037425027786305
11135926 11 18121491616744154876
11456790 92 18342751728386495985
117089 54 18337965518783381018
11828532 37 17896326994479679483
11963148 33 17833267902124077179
12107183 9 18339089173007306073
12166972 35 17385725790061746502
12422481 6 17846778477350339367
12596602 18 15482377742468901842
13009979 54 18341622498688508217
13140716 1 18342463608162103361
13224815 77 17986401190434248185
13402501 40 18341049627550569426
13533116 47 18338519754589906739
13583140 156 17274525577415892249
13782708 43 18261107435719303410
14068700 675 18187085023229552292
14341114 176 18410014368593792257
14420673 8 18268434533635205527
14790565 3 17473545128145016868
15064986 96 17059498418400427182
15927050 60 17692535924500888444
17349148 13 18339644546601012749
17492 89 18338520867050162075
1813 80 17821731611302376660
18608769 82 18341331086022663742
19315092 285 16915643994684286195
1979834 28 17917999377647681574
20028762 73 18411418414504125459
20775530 9 18410005507781309542
21033648 29 17631718396867439099
21033650 10 16371275628631719989
21130935 74 18270124651497460771
21792934 111 18341620313783914179
22122407 14 15984812688741219632
22889206 1 17628906022164824944
23522609 53 18044124326226189156
23559900 14 18410292540814472585
23569914 152 11893539800654505720
2838139 119 9079107843985071594
3004659 81 18114188535910506902
335352 9 18337676322198374485
3383291 50 18335142007937041051
3421961 26 18412263973510520336
3680242 22 18340220690889237545
3886686 26 17553498984985022539
392239 28 16845563236284196610
46194498 28 17241046633898035949
463206 1 18186805781029402003
474113 269 18200584909196481391
50009960 94 17898549119842116362
5104073 3 18272379710895463625
563151 74 17273959393921615048
7970288 3 18334292037481027218

> <PUBCHEM_SHAPE_MULTIPOLES>
664.49
13.92
3.77
1.5
1.37
0.34
0.37
-12.81
-4.41
-1.21
0.19
-0.94
0.09
0.64

> <PUBCHEM_SHAPE_SELFOVERLAP>
1455.26

> <PUBCHEM_SHAPE_VOLUME>
353.9

> <PUBCHEM_COORDINATE_TYPE>
2
5
10

$$$$
