643134
  -OEChem-02172602383D

 21 21  0     0  0  0  0  0  0999 V2000
    1.0067   -2.3096    0.0002 Cl  0  0  0  0  0  0  0  0  0  0  0  0
    4.1253    0.5399    0.0001 O   0  0  0  0  0  0  0  0  0  0  0  0
   -0.7037   -0.2483    0.0002 C   0  0  0  0  0  0  0  0  0  0  0  0
    0.7107   -0.5878    0.0002 C   0  0  0  0  0  0  0  0  0  0  0  0
    1.7406    0.2984   -0.0002 C   0  0  0  0  0  0  0  0  0  0  0  0
   -1.3819   -0.0857   -1.2079 C   0  0  0  0  0  0  0  0  0  0  0  0
   -1.3819   -0.0851    1.2082 C   0  0  0  0  0  0  0  0  0  0  0  0
   -2.7382    0.2401   -1.2081 C   0  0  0  0  0  0  0  0  0  0  0  0
   -2.7383    0.2407    1.2079 C   0  0  0  0  0  0  0  0  0  0  0  0
    1.6261    1.7991   -0.0003 C   0  0  0  0  0  0  0  0  0  0  0  0
   -3.4163    0.4032   -0.0002 C   0  0  0  0  0  0  0  0  0  0  0  0
    3.1510   -0.2051   -0.0001 C   0  0  0  0  0  0  0  0  0  0  0  0
   -0.8676   -0.2089   -2.1580 H   0  0  0  0  0  0  0  0  0  0  0  0
   -0.8677   -0.2078    2.1585 H   0  0  0  0  0  0  0  0  0  0  0  0
   -3.2663    0.3669   -2.1487 H   0  0  0  0  0  0  0  0  0  0  0  0
   -3.2665    0.3680    2.1483 H   0  0  0  0  0  0  0  0  0  0  0  0
    2.1085    2.2179   -0.8899 H   0  0  0  0  0  0  0  0  0  0  0  0
    2.1086    2.2181    0.8891 H   0  0  0  0  0  0  0  0  0  0  0  0
    0.5876    2.1423   -0.0004 H   0  0  0  0  0  0  0  0  0  0  0  0
   -4.4723    0.6570   -0.0004 H   0  0  0  0  0  0  0  0  0  0  0  0
    3.3076   -1.2915    0.0000 H   0  0  0  0  0  0  0  0  0  0  0  0
  1  4  1  0  0  0  0
  2 12  2  0  0  0  0
  3  4  1  0  0  0  0
  3  6  2  0  0  0  0
  3  7  1  0  0  0  0
  4  5  2  0  0  0  0
  5 10  1  0  0  0  0
  5 12  1  0  0  0  0
  6  8  1  0  0  0  0
  6 13  1  0  0  0  0
  7  9  2  0  0  0  0
  7 14  1  0  0  0  0
  8 11  2  0  0  0  0
  8 15  1  0  0  0  0
  9 11  1  0  0  0  0
  9 16  1  0  0  0  0
 10 17  1  0  0  0  0
 10 18  1  0  0  0  0
 10 19  1  0  0  0  0
 11 20  1  0  0  0  0
 12 21  1  0  0  0  0
M  END
> <PUBCHEM_COMPOUND_CID>
643134

> <PUBCHEM_CONFORMER_RMSD>
0.6

> <PUBCHEM_CONFORMER_DIVERSEORDER>
1
3
2

> <PUBCHEM_MMFF94_PARTIAL_CHARGES>
18
1 -0.14
10 0.14
11 -0.15
12 0.5
13 0.15
14 0.15
15 0.15
16 0.15
2 -0.57
20 0.15
21 0.06
3 0.03
4 0.11
5 -0.12
6 -0.15
7 -0.15
8 -0.15
9 -0.15

> <PUBCHEM_EFFECTIVE_ROTOR_COUNT>
2

> <PUBCHEM_PHARMACOPHORE_FEATURES>
3
1 10 hydrophobe
1 2 acceptor
6 3 6 7 8 9 11 rings

> <PUBCHEM_HEAVY_ATOM_COUNT>
12

> <PUBCHEM_ATOM_DEF_STEREO_COUNT>
0

> <PUBCHEM_ATOM_UDEF_STEREO_COUNT>
0

> <PUBCHEM_BOND_DEF_STEREO_COUNT>
1

> <PUBCHEM_BOND_UDEF_STEREO_COUNT>
0

> <PUBCHEM_ISOTOPIC_ATOM_COUNT>
0

> <PUBCHEM_COMPONENT_COUNT>
1

> <PUBCHEM_CACTVS_TAUTO_COUNT>
1

> <PUBCHEM_CONFORMER_ID>
0009D03E00000001

> <PUBCHEM_MMFF94_ENERGY>
32.4752

> <PUBCHEM_FEATURE_SELFOVERLAP>
15.223

> <PUBCHEM_SHAPE_FINGERPRINT>
10219947 1 18408886218055520950
10857977 72 16588030130001023893
11031198 65 18334298638839947206
12326174 3 18190456069550275850
124424 183 17530954774710215704
12932764 1 17749665272388981522
13024252 1 16081083792892920663
13581323 91 15213022643591275195
13839132 238 16879336832075668047
14993402 34 17918272047666667372
15219456 202 17749670679758328627
15279308 16 17822285730639221029
15309172 13 18335703857802930930
15775835 57 17632301142208822881
16945 1 18410575067541264487
18175812 5 17603589668044785143
18186145 218 18272090521877757852
200 152 18342170103298313015
20201158 50 18113336384122894275
20279233 1 17531249426715318115
20645464 45 17458347420742702539
20645476 183 17846770798481531639
23402539 116 14979674355959496601
369184 2 17095238129485999913
5084963 1 18201992278613298660
528886 8 18412821395629957322
63268167 104 18271804588334506432
77492 1 17703785877656149219
8030462 33 17489575732757112863
81228 2 17541656561886119802

> <PUBCHEM_SHAPE_MULTIPOLES>
242.95
5.72
1.47
1.11
1.75
0.55
0
-1.41
0
1.09
0
-1
-0.02
0

> <PUBCHEM_SHAPE_SELFOVERLAP>
493.021

> <PUBCHEM_SHAPE_VOLUME>
142.2

> <PUBCHEM_COORDINATE_TYPE>
2
5
10

$$$$
