12445012
  -OEChem-02172602313D

 41 43  0     1  0  0  0  0  0999 V2000
    2.2359    1.5815    0.0316 O   0  0  0  0  0  0  0  0  0  0  0  0
   -3.2421    0.7373   -0.4909 O   0  0  0  0  0  0  0  0  0  0  0  0
    4.4505    2.1912   -0.0272 O   0  0  0  0  0  0  0  0  0  0  0  0
   -4.8135    0.1591    1.1007 O   0  0  0  0  0  0  0  0  0  0  0  0
    0.1736    0.4668    0.6224 C   0  0  1  0  0  0  0  0  0  0  0  0
   -0.5595   -0.8586    0.9240 C   0  0  1  0  0  0  0  0  0  0  0  0
    1.4941    0.3548   -0.1583 C   0  0  2  0  0  0  0  0  0  0  0  0
    2.4299   -0.7550    0.3191 C   0  0  1  0  0  0  0  0  0  0  0  0
   -2.0065   -0.4257    1.2462 C   0  0  0  0  0  0  0  0  0  0  0  0
   -0.9142    1.3069   -0.0249 C   0  0  0  0  0  0  0  0  0  0  0  0
   -2.2575    0.8956    0.5191 C   0  0  1  0  0  0  0  0  0  0  0  0
   -0.3775   -1.9407   -0.1305 C   0  0  0  0  0  0  0  0  0  0  0  0
    2.1697   -2.0902   -0.3882 C   0  0  0  0  0  0  0  0  0  0  0  0
    0.8706   -2.7827    0.0276 C   0  0  0  0  0  0  0  0  0  0  0  0
    3.7503   -0.1206    0.0226 C   0  0  0  0  0  0  0  0  0  0  0  0
    3.5760    1.3446   -0.0038 C   0  0  0  0  0  0  0  0  0  0  0  0
   -0.7620    2.2397   -0.9755 C   0  0  0  0  0  0  0  0  0  0  0  0
   -1.2545   -2.2293   -1.1052 C   0  0  0  0  0  0  0  0  0  0  0  0
    4.9411   -0.6749   -0.2194 C   0  0  0  0  0  0  0  0  0  0  0  0
   -4.4870    0.3636   -0.0606 C   0  0  0  0  0  0  0  0  0  0  0  0
   -5.4172    0.2365   -1.2288 C   0  0  0  0  0  0  0  0  0  0  0  0
    0.3890    0.9529    1.5866 H   0  0  0  0  0  0  0  0  0  0  0  0
   -0.1554   -1.2740    1.8587 H   0  0  0  0  0  0  0  0  0  0  0  0
    1.2969    0.2657   -1.2360 H   0  0  0  0  0  0  0  0  0  0  0  0
    2.3589   -0.8808    1.4076 H   0  0  0  0  0  0  0  0  0  0  0  0
   -2.7229   -1.2237    1.0301 H   0  0  0  0  0  0  0  0  0  0  0  0
   -2.0698   -0.2376    2.3272 H   0  0  0  0  0  0  0  0  0  0  0  0
   -2.5986    1.6573    1.2328 H   0  0  0  0  0  0  0  0  0  0  0  0
    2.9891   -2.7876   -0.1735 H   0  0  0  0  0  0  0  0  0  0  0  0
    2.1710   -1.9456   -1.4770 H   0  0  0  0  0  0  0  0  0  0  0  0
    0.9508   -3.1107    1.0721 H   0  0  0  0  0  0  0  0  0  0  0  0
    0.7806   -3.7089   -0.5555 H   0  0  0  0  0  0  0  0  0  0  0  0
   -1.6197    2.7675   -1.3801 H   0  0  0  0  0  0  0  0  0  0  0  0
    0.2094    2.5102   -1.3707 H   0  0  0  0  0  0  0  0  0  0  0  0
   -2.1699   -1.6673   -1.2428 H   0  0  0  0  0  0  0  0  0  0  0  0
   -1.0704   -3.0359   -1.8076 H   0  0  0  0  0  0  0  0  0  0  0  0
    5.0754   -1.7506   -0.2048 H   0  0  0  0  0  0  0  0  0  0  0  0
    5.8182   -0.0731   -0.4334 H   0  0  0  0  0  0  0  0  0  0  0  0
   -5.0460   -0.5290   -1.9149 H   0  0  0  0  0  0  0  0  0  0  0  0
   -5.5064    1.1996   -1.7375 H   0  0  0  0  0  0  0  0  0  0  0  0
   -6.4071   -0.0638   -0.8736 H   0  0  0  0  0  0  0  0  0  0  0  0
  1  7  1  0  0  0  0
  1 16  1  0  0  0  0
  2 11  1  0  0  0  0
  2 20  1  0  0  0  0
  3 16  2  0  0  0  0
  4 20  2  0  0  0  0
  5  6  1  0  0  0  0
  5  7  1  0  0  0  0
  5 10  1  0  0  0  0
  5 22  1  0  0  0  0
  6  9  1  0  0  0  0
  6 12  1  0  0  0  0
  6 23  1  0  0  0  0
  7  8  1  0  0  0  0
  7 24  1  0  0  0  0
  8 13  1  0  0  0  0
  8 15  1  0  0  0  0
  8 25  1  0  0  0  0
  9 11  1  0  0  0  0
  9 26  1  0  0  0  0
  9 27  1  0  0  0  0
 10 11  1  0  0  0  0
 10 17  2  0  0  0  0
 11 28  1  0  0  0  0
 12 14  1  0  0  0  0
 12 18  2  0  0  0  0
 13 14  1  0  0  0  0
 13 29  1  0  0  0  0
 13 30  1  0  0  0  0
 14 31  1  0  0  0  0
 14 32  1  0  0  0  0
 15 16  1  0  0  0  0
 15 19  2  0  0  0  0
 17 33  1  0  0  0  0
 17 34  1  0  0  0  0
 18 35  1  0  0  0  0
 18 36  1  0  0  0  0
 19 37  1  0  0  0  0
 19 38  1  0  0  0  0
 20 21  1  0  0  0  0
 21 39  1  0  0  0  0
 21 40  1  0  0  0  0
 21 41  1  0  0  0  0
M  END
> <PUBCHEM_COMPOUND_CID>
12445012

> <PUBCHEM_CONFORMER_RMSD>
0.6

> <PUBCHEM_CONFORMER_DIVERSEORDER>
1
9
5
3
7
10
4
8
12
13
11
2
6

> <PUBCHEM_MMFF94_PARTIAL_CHARGES>
25
1 -0.43
10 -0.28
11 0.42
12 -0.28
14 0.14
15 -0.12
16 0.71
17 -0.3
18 -0.3
19 -0.3
2 -0.43
20 0.66
21 0.06
3 -0.57
33 0.15
34 0.15
35 0.15
36 0.15
37 0.15
38 0.15
4 -0.57
5 0.14
6 0.14
7 0.28
8 0.14

> <PUBCHEM_EFFECTIVE_ROTOR_COUNT>
3

> <PUBCHEM_PHARMACOPHORE_FEATURES>
5
1 3 acceptor
1 4 acceptor
5 1 7 8 15 16 rings
5 5 6 9 10 11 rings
7 5 6 7 8 12 13 14 rings

> <PUBCHEM_HEAVY_ATOM_COUNT>
21

> <PUBCHEM_ATOM_DEF_STEREO_COUNT>
5

> <PUBCHEM_ATOM_UDEF_STEREO_COUNT>
0

> <PUBCHEM_BOND_DEF_STEREO_COUNT>
0

> <PUBCHEM_BOND_UDEF_STEREO_COUNT>
0

> <PUBCHEM_ISOTOPIC_ATOM_COUNT>
0

> <PUBCHEM_COMPONENT_COUNT>
1

> <PUBCHEM_CACTVS_TAUTO_COUNT>
1

> <PUBCHEM_CONFORMER_ID>
00BDE55400000001

> <PUBCHEM_MMFF94_ENERGY>
52.0661

> <PUBCHEM_FEATURE_SELFOVERLAP>
25.427

> <PUBCHEM_SHAPE_FINGERPRINT>
10948715 1 18410856551065815663
10967382 1 18411139117349185522
11578080 2 16986018278952869147
12011746 2 18334862680068450654
12236239 1 17418093187310467137
12403259 226 18045781183158959518
12403260 363 18338230449819334736
12592029 89 18410012091923944130
12969540 114 18187630423714377023
13140716 1 18339078302217810658
13583140 156 17603589629358535435
13862211 1 18411132502841405122
14787075 74 18059855090766013449
14790565 3 18341902874312041553
15196674 1 18339361967237575170
15375358 24 18186803577953609449
16945 1 18191037719717145658
200 152 18131068203775425473
20602899 9 16988570125240160615
20645477 70 18409730629684188610
21267235 1 18338808831558653938
21521721 280 18271810185289024633
21524375 3 18410858733283995426
22182313 1 18264794162478888363
23227448 37 18339080500856087102
2334 1 18195531626114914866
23402539 116 18259698995688713055
23419403 2 15071396651246854795
23557571 272 17095808707607495853
23559900 14 17241336763181561298
238 59 17903325170777157756
2748010 2 18265072360384846738
3060560 45 18411419492861916758
335352 9 18411419506121423622
33824 294 18409449163513599474
34934 24 18187359986761743600
350125 39 18410014321602482728
42630746 31 18342179934146105039
44154327 71 18334582377617993628
5104073 3 18338517546881856418
58051976 378 18342738481441523998
69090 78 18411980269229368872
8272917 22 18199476471692187881
9709674 26 18264777562234837627

> <PUBCHEM_SHAPE_MULTIPOLES>
408.69
9.1
2.52
1.01
3.59
0.75
0.01
-2.62
-1.08
-1.49
-0.55
0.91
0.08
0.1

> <PUBCHEM_SHAPE_SELFOVERLAP>
870.949

> <PUBCHEM_SHAPE_VOLUME>
227.8

> <PUBCHEM_COORDINATE_TYPE>
2
5
10

$$$$
