10091388
  -OEChem-02172602543D

 52 54  0     1  0  0  0  0  0999 V2000
   -1.9041    1.5083   -0.3206 S   0  0  0  0  0  0  0  0  0  0  0  0
   -3.9892   -0.1725   -0.9252 O   0  0  0  0  0  0  0  0  0  0  0  0
   -2.4677    1.2325    0.9848 O   0  0  0  0  0  0  0  0  0  0  0  0
   -2.7053    2.1174   -1.3622 O   0  0  0  0  0  0  0  0  0  0  0  0
   -1.1809    0.0856   -0.9321 N   0  0  2  0  0  0  0  0  0  0  0  0
   -1.8777   -1.1896   -0.8882 C   0  0  1  0  0  0  0  0  0  0  0  0
   -0.7932   -0.9004    0.0814 C   0  0  1  0  0  0  0  0  0  0  0  0
   -3.3079   -1.0820   -0.4631 C   0  0  0  0  0  0  0  0  0  0  0  0
   -3.8437   -2.1195    0.5343 C   0  0  0  0  0  0  0  0  0  0  0  0
    0.4813   -1.5697   -0.0939 C   0  0  0  0  0  0  0  0  0  0  0  0
   -0.4693    2.5108   -0.0855 C   0  0  0  0  0  0  0  0  0  0  0  0
   -3.0418   -2.0533    1.8409 C   0  0  0  0  0  0  0  0  0  0  0  0
   -3.7625   -3.5241   -0.0774 C   0  0  0  0  0  0  0  0  0  0  0  0
   -5.3179   -1.8058    0.8480 C   0  0  0  0  0  0  0  0  0  0  0  0
    1.6775   -1.0540    0.2337 C   0  0  0  0  0  0  0  0  0  0  0  0
   -0.0322    3.3213   -1.1199 C   0  0  0  0  0  0  0  0  0  0  0  0
    0.1931    2.4706    1.1300 C   0  0  0  0  0  0  0  0  0  0  0  0
    2.9745   -1.7303    0.0672 C   0  0  0  0  0  0  0  0  0  0  0  0
    1.1000    4.1144   -0.9335 C   0  0  0  0  0  0  0  0  0  0  0  0
    1.3253    3.2637    1.3165 C   0  0  0  0  0  0  0  0  0  0  0  0
    1.7788    4.0857    0.2847 C   0  0  0  0  0  0  0  0  0  0  0  0
    3.0809   -2.7895   -0.8203 C   0  0  0  0  0  0  0  0  0  0  0  0
    4.0666   -1.2933    0.8005 C   0  0  0  0  0  0  0  0  0  0  0  0
    2.9896    4.9332    0.4842 C   0  0  0  0  0  0  0  0  0  0  0  0
    4.3108   -3.4280   -0.9787 C   0  0  0  0  0  0  0  0  0  0  0  0
    5.2964   -1.9320    0.6420 C   0  0  0  0  0  0  0  0  0  0  0  0
    5.4187   -2.9993   -0.2476 C   0  0  0  0  0  0  0  0  0  0  0  0
   -1.6811   -1.7771   -1.7758 H   0  0  0  0  0  0  0  0  0  0  0  0
   -0.9974   -0.6018    1.0967 H   0  0  0  0  0  0  0  0  0  0  0  0
    0.4159   -2.5797   -0.4886 H   0  0  0  0  0  0  0  0  0  0  0  0
   -2.0406   -2.4803    1.7346 H   0  0  0  0  0  0  0  0  0  0  0  0
   -2.9590   -1.0313    2.2215 H   0  0  0  0  0  0  0  0  0  0  0  0
   -3.5358   -2.6448    2.6218 H   0  0  0  0  0  0  0  0  0  0  0  0
   -2.7253   -3.8143   -0.2793 H   0  0  0  0  0  0  0  0  0  0  0  0
   -4.3029   -3.5707   -1.0299 H   0  0  0  0  0  0  0  0  0  0  0  0
   -4.1920   -4.2759    0.5940 H   0  0  0  0  0  0  0  0  0  0  0  0
   -5.9314   -1.8289   -0.0602 H   0  0  0  0  0  0  0  0  0  0  0  0
   -5.4251   -0.8084    1.2903 H   0  0  0  0  0  0  0  0  0  0  0  0
   -5.7396   -2.5312    1.5529 H   0  0  0  0  0  0  0  0  0  0  0  0
    1.7190   -0.0575    0.6657 H   0  0  0  0  0  0  0  0  0  0  0  0
   -0.5426    3.3518   -2.0777 H   0  0  0  0  0  0  0  0  0  0  0  0
   -0.1399    1.8332    1.9433 H   0  0  0  0  0  0  0  0  0  0  0  0
    1.4456    4.7479   -1.7461 H   0  0  0  0  0  0  0  0  0  0  0  0
    1.8478    3.2298    2.2688 H   0  0  0  0  0  0  0  0  0  0  0  0
    2.2526   -3.1419   -1.4267 H   0  0  0  0  0  0  0  0  0  0  0  0
    3.9872   -0.4635    1.4979 H   0  0  0  0  0  0  0  0  0  0  0  0
    3.0869    5.2425    1.5305 H   0  0  0  0  0  0  0  0  0  0  0  0
    3.8880    4.3777    0.1974 H   0  0  0  0  0  0  0  0  0  0  0  0
    2.9359    5.8477   -0.1162 H   0  0  0  0  0  0  0  0  0  0  0  0
    4.4080   -4.2558   -1.6753 H   0  0  0  0  0  0  0  0  0  0  0  0
    6.1592   -1.5981    1.2111 H   0  0  0  0  0  0  0  0  0  0  0  0
    6.3767   -3.4956   -0.3720 H   0  0  0  0  0  0  0  0  0  0  0  0
  1  3  2  0  0  0  0
  1  4  2  0  0  0  0
  1  5  1  0  0  0  0
  1 11  1  0  0  0  0
  2  8  2  0  0  0  0
  5  6  1  0  0  0  0
  5  7  1  0  0  0  0
  6  7  1  0  0  0  0
  6  8  1  0  0  0  0
  6 28  1  0  0  0  0
  7 10  1  0  0  0  0
  7 29  1  0  0  0  0
  8  9  1  0  0  0  0
  9 12  1  0  0  0  0
  9 13  1  0  0  0  0
  9 14  1  0  0  0  0
 10 15  2  0  0  0  0
 10 30  1  0  0  0  0
 11 16  2  0  0  0  0
 11 17  1  0  0  0  0
 12 31  1  0  0  0  0
 12 32  1  0  0  0  0
 12 33  1  0  0  0  0
 13 34  1  0  0  0  0
 13 35  1  0  0  0  0
 13 36  1  0  0  0  0
 14 37  1  0  0  0  0
 14 38  1  0  0  0  0
 14 39  1  0  0  0  0
 15 18  1  0  0  0  0
 15 40  1  0  0  0  0
 16 19  1  0  0  0  0
 16 41  1  0  0  0  0
 17 20  2  0  0  0  0
 17 42  1  0  0  0  0
 18 22  2  0  0  0  0
 18 23  1  0  0  0  0
 19 21  2  0  0  0  0
 19 43  1  0  0  0  0
 20 21  1  0  0  0  0
 20 44  1  0  0  0  0
 21 24  1  0  0  0  0
 22 25  1  0  0  0  0
 22 45  1  0  0  0  0
 23 26  2  0  0  0  0
 23 46  1  0  0  0  0
 24 47  1  0  0  0  0
 24 48  1  0  0  0  0
 24 49  1  0  0  0  0
 25 27  2  0  0  0  0
 25 50  1  0  0  0  0
 26 27  1  0  0  0  0
 26 51  1  0  0  0  0
 27 52  1  0  0  0  0
M  END
> <PUBCHEM_COMPOUND_CID>
10091388

> <PUBCHEM_CONFORMER_RMSD>
0.8

> <PUBCHEM_CONFORMER_DIVERSEORDER>
1
27
25
28
8
33
16
18
20
3
34
30
14
31
11
17
36
21
23
10
6
32
12
5
29
9
26
2
7
35
19
22
4
13
24
15

> <PUBCHEM_MMFF94_PARTIAL_CHARGES>
37
1 1.45
10 -0.19
11 -0.01
15 -0.18
16 -0.15
17 -0.15
18 0.03
19 -0.15
2 -0.57
20 -0.15
21 -0.14
22 -0.15
23 -0.15
24 0.14
25 -0.15
26 -0.15
27 -0.15
28 0.1
29 0.1
3 -0.65
30 0.15
4 -0.65
40 0.15
41 0.15
42 0.15
43 0.15
44 0.15
45 0.15
46 0.15
5 -0.6
50 0.15
51 0.15
52 0.15
6 0.13
7 0.17
8 0.51
9 0.06

> <PUBCHEM_EFFECTIVE_ROTOR_COUNT>
6.6

> <PUBCHEM_PHARMACOPHORE_FEATURES>
6
1 2 acceptor
1 3 acceptor
1 4 acceptor
4 9 12 13 14 hydrophobe
6 11 16 17 19 20 21 rings
6 18 22 23 25 26 27 rings

> <PUBCHEM_HEAVY_ATOM_COUNT>
27

> <PUBCHEM_ATOM_DEF_STEREO_COUNT>
2

> <PUBCHEM_ATOM_UDEF_STEREO_COUNT>
0

> <PUBCHEM_BOND_DEF_STEREO_COUNT>
1

> <PUBCHEM_BOND_UDEF_STEREO_COUNT>
0

> <PUBCHEM_ISOTOPIC_ATOM_COUNT>
0

> <PUBCHEM_COMPONENT_COUNT>
1

> <PUBCHEM_CACTVS_TAUTO_COUNT>
2

> <PUBCHEM_CONFORMER_ID>
0099FB7C00000001

> <PUBCHEM_MMFF94_ENERGY>
74.1093

> <PUBCHEM_FEATURE_SELFOVERLAP>
30.476

> <PUBCHEM_SHAPE_FINGERPRINT>
10670039 82 18339372860450979622
10937287 8 16752967538655973324
1100329 8 18338520712378695945
11014199 57 18266468607640794662
11045515 52 18408604730004134266
11488393 25 18191309475478239048
11578080 2 17896022386760717621
12156800 1 15839341841736274608
12160290 23 17623542286510814818
12293681 160 17688848862296602197
12608794 3 18268454377438622683
12788726 201 17973157331663465323
12839892 36 17328018184344846059
13140716 1 18339928099898711584
13540713 4 18114733963093692791
138480 1 18411696617116059476
14028597 1 17485951905292795697
14251757 5 17978793411556781614
14363568 33 18340492287208993448
14444916 359 17834124417671730764
14713325 29 17909837535399618710
14790565 3 17401771216385292113
15463212 79 17399234149512826738
15927050 60 17693381448747696662
15961568 22 18411692163883534192
1813 80 18201453466487416143
19611394 137 18188494709143680394
20028762 73 16540184086771034663
20101258 96 18409733928345685499
20600515 1 17984999102064884949
21049683 271 18263093269899007182
22440779 20 16825656415045083554
22956985 138 18119249716661294358
23557571 272 18197215845847817078
23559900 14 18337099151217956035
283562 15 17547567076783029029
4017518 198 17547298156644422076
4409770 3 17901664869590818541
469060 322 18267317447201624290
5171179 24 18409165541422375953
5385378 56 18051143784977863819
9981440 41 16894827645109534032

> <PUBCHEM_SHAPE_MULTIPOLES>
536.91
9.69
7.02
1.26
1.72
7.3
0.15
-12.97
1.12
7.1
-0.24
-0.42
0.23
1.73

> <PUBCHEM_SHAPE_SELFOVERLAP>
1129.425

> <PUBCHEM_SHAPE_VOLUME>
304

> <PUBCHEM_COORDINATE_TYPE>
2
5
10

$$$$
