10141642
  -OEChem-02172602543D

 54 58  0     1  0  0  0  0  0999 V2000
    2.7392    3.4007   -2.5971 Br  0  0  0  0  0  0  0  0  0  0  0  0
    3.5648    0.9591   -1.7411 F   0  0  0  0  0  0  0  0  0  0  0  0
    4.8214    2.6223   -1.0364 F   0  0  0  0  0  0  0  0  0  0  0  0
    0.6300   -1.4982    2.0424 O   0  0  0  0  0  0  0  0  0  0  0  0
    2.7893    2.2902   -0.0638 O   0  0  0  0  0  0  0  0  0  0  0  0
   -3.6757    2.1293   -0.3406 N   0  0  0  0  0  0  0  0  0  0  0  0
   -4.8668    1.3573   -0.0325 C   0  0  0  0  0  0  0  0  0  0  0  0
   -2.1409    0.2716    0.1834 C   0  0  0  0  0  0  0  0  0  0  0  0
   -0.8113   -0.0947    0.5650 C   0  0  0  0  0  0  0  0  0  0  0  0
   -2.3967    1.6464   -0.0775 C   0  0  0  0  0  0  0  0  0  0  0  0
   -0.3871   -1.4979    1.0080 C   0  0  1  0  0  0  0  0  0  0  0  0
   -3.3181   -0.6437    0.0132 C   0  0  0  0  0  0  0  0  0  0  0  0
    0.2353    0.8771    0.5866 C   0  0  0  0  0  0  0  0  0  0  0  0
   -4.5547   -0.1120   -0.0553 C   0  0  0  0  0  0  0  0  0  0  0  0
    1.5851    0.4633    1.0139 C   0  0  0  0  0  0  0  0  0  0  0  0
   -5.9167    1.6778   -1.1073 C   0  0  0  0  0  0  0  0  0  0  0  0
   -5.3946    1.7681    1.3466 C   0  0  0  0  0  0  0  0  0  0  0  0
   -1.3499    2.5783   -0.0693 C   0  0  0  0  0  0  0  0  0  0  0  0
   -0.0553    2.2012    0.2495 C   0  0  0  0  0  0  0  0  0  0  0  0
    1.7187   -0.7172    1.7549 C   0  0  0  0  0  0  0  0  0  0  0  0
    0.0456   -2.4760   -0.0782 C   0  0  0  0  0  0  0  0  0  0  0  0
   -3.2017   -2.1260   -0.1807 C   0  0  0  0  0  0  0  0  0  0  0  0
    2.7567    1.1895    0.7433 C   0  0  0  0  0  0  0  0  0  0  0  0
    2.9508   -1.1378    2.2610 C   0  0  0  0  0  0  0  0  0  0  0  0
    0.8227   -2.0275   -1.1420 C   0  0  0  0  0  0  0  0  0  0  0  0
   -0.3393   -3.8110    0.0006 C   0  0  0  0  0  0  0  0  0  0  0  0
    3.9990    0.7635    1.2256 C   0  0  0  0  0  0  0  0  0  0  0  0
    4.0945   -0.3949    1.9908 C   0  0  0  0  0  0  0  0  0  0  0  0
    1.2187   -2.9224   -2.1360 C   0  0  0  0  0  0  0  0  0  0  0  0
    0.0566   -4.7058   -0.9935 C   0  0  0  0  0  0  0  0  0  0  0  0
    0.8358   -4.2615   -2.0619 C   0  0  0  0  0  0  0  0  0  0  0  0
    3.5446    2.2310   -1.2717 C   0  0  0  0  0  0  0  0  0  0  0  0
   -1.2408   -1.9169    1.5453 H   0  0  0  0  0  0  0  0  0  0  0  0
   -3.7812    3.1228   -0.5168 H   0  0  0  0  0  0  0  0  0  0  0  0
   -5.4112   -0.7755   -0.1680 H   0  0  0  0  0  0  0  0  0  0  0  0
   -6.1487    2.7495   -1.1274 H   0  0  0  0  0  0  0  0  0  0  0  0
   -5.5595    1.4059   -2.1082 H   0  0  0  0  0  0  0  0  0  0  0  0
   -6.8540    1.1382   -0.9283 H   0  0  0  0  0  0  0  0  0  0  0  0
   -6.3119    1.2252    1.6026 H   0  0  0  0  0  0  0  0  0  0  0  0
   -4.6587    1.5691    2.1351 H   0  0  0  0  0  0  0  0  0  0  0  0
   -5.6196    2.8407    1.3800 H   0  0  0  0  0  0  0  0  0  0  0  0
   -1.5495    3.6271   -0.2819 H   0  0  0  0  0  0  0  0  0  0  0  0
    0.6760    2.9990    0.3026 H   0  0  0  0  0  0  0  0  0  0  0  0
   -2.4756   -2.3518   -0.9634 H   0  0  0  0  0  0  0  0  0  0  0  0
   -4.1440   -2.5652   -0.5326 H   0  0  0  0  0  0  0  0  0  0  0  0
   -2.9690   -2.6430    0.7512 H   0  0  0  0  0  0  0  0  0  0  0  0
    3.0243   -2.0475    2.8503 H   0  0  0  0  0  0  0  0  0  0  0  0
    1.1321   -0.9952   -1.2512 H   0  0  0  0  0  0  0  0  0  0  0  0
   -0.9389   -4.1727    0.8312 H   0  0  0  0  0  0  0  0  0  0  0  0
    4.9048    1.3276    1.0204 H   0  0  0  0  0  0  0  0  0  0  0  0
    5.0584   -0.7199    2.3707 H   0  0  0  0  0  0  0  0  0  0  0  0
    1.8226   -2.5760   -2.9698 H   0  0  0  0  0  0  0  0  0  0  0  0
   -0.2403   -5.7488   -0.9350 H   0  0  0  0  0  0  0  0  0  0  0  0
    1.1437   -4.9582   -2.8360 H   0  0  0  0  0  0  0  0  0  0  0  0
  1 32  1  0  0  0  0
  2 32  1  0  0  0  0
  3 32  1  0  0  0  0
  4 11  1  0  0  0  0
  4 20  1  0  0  0  0
  5 23  1  0  0  0  0
  5 32  1  0  0  0  0
  6  7  1  0  0  0  0
  6 10  1  0  0  0  0
  6 34  1  0  0  0  0
  7 14  1  0  0  0  0
  7 16  1  0  0  0  0
  7 17  1  0  0  0  0
  8  9  1  0  0  0  0
  8 10  2  0  0  0  0
  8 12  1  0  0  0  0
  9 11  1  0  0  0  0
  9 13  2  0  0  0  0
 10 18  1  0  0  0  0
 11 21  1  0  0  0  0
 11 33  1  0  0  0  0
 12 14  2  0  0  0  0
 12 22  1  0  0  0  0
 13 15  1  0  0  0  0
 13 19  1  0  0  0  0
 14 35  1  0  0  0  0
 15 20  2  0  0  0  0
 15 23  1  0  0  0  0
 16 36  1  0  0  0  0
 16 37  1  0  0  0  0
 16 38  1  0  0  0  0
 17 39  1  0  0  0  0
 17 40  1  0  0  0  0
 17 41  1  0  0  0  0
 18 19  2  0  0  0  0
 18 42  1  0  0  0  0
 19 43  1  0  0  0  0
 20 24  1  0  0  0  0
 21 25  2  0  0  0  0
 21 26  1  0  0  0  0
 22 44  1  0  0  0  0
 22 45  1  0  0  0  0
 22 46  1  0  0  0  0
 23 27  2  0  0  0  0
 24 28  2  0  0  0  0
 24 47  1  0  0  0  0
 25 29  1  0  0  0  0
 25 48  1  0  0  0  0
 26 30  2  0  0  0  0
 26 49  1  0  0  0  0
 27 28  1  0  0  0  0
 27 50  1  0  0  0  0
 28 51  1  0  0  0  0
 29 31  2  0  0  0  0
 29 52  1  0  0  0  0
 30 31  1  0  0  0  0
 30 53  1  0  0  0  0
 31 54  1  0  0  0  0
M  END
> <PUBCHEM_COMPOUND_CID>
10141642

> <PUBCHEM_CONFORMER_RMSD>
0.8

> <PUBCHEM_CONFORMER_DIVERSEORDER>
1
13
11
9
4
6
5
7
10
8
3
2
12

> <PUBCHEM_MMFF94_PARTIAL_CHARGES>
40
1 -0.23
10 0.1
11 0.57
12 -0.17
14 -0.29
18 -0.15
19 -0.15
2 -0.34
20 0.08
21 -0.14
22 0.14
23 0.08
24 -0.15
25 -0.15
26 -0.15
27 -0.15
28 -0.15
29 -0.15
3 -0.34
30 -0.15
31 -0.15
32 1.19
34 0.4
35 0.15
4 -0.36
42 0.15
43 0.15
47 0.15
48 0.15
49 0.15
5 -0.36
50 0.15
51 0.15
52 0.15
53 0.15
54 0.15
6 -0.87
7 0.51
8 0.03
9 -0.14

> <PUBCHEM_EFFECTIVE_ROTOR_COUNT>
3.8

> <PUBCHEM_PHARMACOPHORE_FEATURES>
11
1 1 hydrophobe
1 4 acceptor
1 5 acceptor
1 6 cation
1 6 donor
3 7 16 17 hydrophobe
6 15 20 23 24 27 28 rings
6 21 25 26 29 30 31 rings
6 4 9 11 13 15 20 rings
6 6 7 8 10 12 14 rings
6 8 9 10 13 18 19 rings

> <PUBCHEM_HEAVY_ATOM_COUNT>
32

> <PUBCHEM_ATOM_DEF_STEREO_COUNT>
0

> <PUBCHEM_ATOM_UDEF_STEREO_COUNT>
1

> <PUBCHEM_BOND_DEF_STEREO_COUNT>
0

> <PUBCHEM_BOND_UDEF_STEREO_COUNT>
0

> <PUBCHEM_ISOTOPIC_ATOM_COUNT>
0

> <PUBCHEM_COMPONENT_COUNT>
1

> <PUBCHEM_CACTVS_TAUTO_COUNT>
1

> <PUBCHEM_CONFORMER_ID>
009ABFCA00000001

> <PUBCHEM_MMFF94_ENERGY>
130.5441

> <PUBCHEM_FEATURE_SELFOVERLAP>
55.896

> <PUBCHEM_SHAPE_FINGERPRINT>
10906281 52 18408887317983977921
11488393 25 18196108667302659962
12156800 1 16085638059748673427
12422481 6 17838021863868567802
12788726 201 17833264594682306466
13140716 1 18269822242475349817
133893 2 17842576058046868571
13583140 156 16878772787306688217
13726171 33 18123210123031870089
14117953 113 18190729856630381581
14790565 3 18410572916037592801
14863182 85 18200022941872009840
15131766 46 15432285217253045164
15163728 17 18340218452599326655
15297060 5 18272941534918691152
15664445 248 18045509616313156749
15849732 13 18335408025409855194
18681886 176 18338220627197766672
19319366 153 17752758301914728538
20028762 73 17915447506171166023
21781055 127 18129674002195373400
22149856 69 18272378534643948281
22182313 1 17904755588661471645
22907989 373 17834396000863362559
23559900 14 18196658397689330175
23598288 3 18119243111280973482
3298306 158 18273214196727985735
340366 18 18409450297996960286
4280585 95 17547570379560197094
5081480 168 17625544480326931117
57527295 17 15984562026113103400
59755656 215 18197772211341748394
6287921 2 18125443016673142625
6669772 16 17703213041511380774
9999458 23 17240478066232847394

> <PUBCHEM_SHAPE_MULTIPOLES>
633.22
9.11
5.2
2.14
9.41
4.8
-0.46
-8.51
0.34
-2.2
-4.01
-2.69
0.17
-1.38

> <PUBCHEM_SHAPE_SELFOVERLAP>
1394.7

> <PUBCHEM_SHAPE_VOLUME>
348.1

> <PUBCHEM_COORDINATE_TYPE>
2
5
10

$$$$
