10168652
  -OEChem-02172602543D

 67 69  0     1  0  0  0  0  0999 V2000
    6.4244   -1.3725   -3.8545 Cl  0  0  0  0  0  0  0  0  0  0  0  0
    5.4974    0.1023    0.6446 S   0  0  0  0  0  0  0  0  0  0  0  0
   -1.8409    3.0815    3.2778 F   0  0  0  0  0  0  0  0  0  0  0  0
   -2.2872    4.6875    1.8902 F   0  0  0  0  0  0  0  0  0  0  0  0
   -3.3604    2.8017    1.7477 F   0  0  0  0  0  0  0  0  0  0  0  0
    0.5553    2.1551   -3.4471 F   0  0  0  0  0  0  0  0  0  0  0  0
   -1.5998    2.1327   -3.2045 F   0  0  0  0  0  0  0  0  0  0  0  0
   -0.5111    4.0092   -3.0551 F   0  0  0  0  0  0  0  0  0  0  0  0
   -7.1083   -0.4566   -1.3062 F   0  0  0  0  0  0  0  0  0  0  0  0
   -6.7257   -0.5797    0.8251 F   0  0  0  0  0  0  0  0  0  0  0  0
   -5.4659    0.6695   -0.4324 F   0  0  0  0  0  0  0  0  0  0  0  0
    6.4610   -0.1584    1.6918 O   0  0  0  0  0  0  0  0  0  0  0  0
    5.2674    1.4379    0.1385 O   0  0  0  0  0  0  0  0  0  0  0  0
    2.6214    1.1849    2.2625 O   0  0  0  0  0  0  0  0  0  0  0  0
    0.1375   -3.4800    2.4518 O   0  0  0  0  0  0  0  0  0  0  0  0
    3.9971   -0.5822    1.0941 N   0  0  1  0  0  0  0  0  0  0  0  0
    1.5605   -2.1453    1.1945 N   0  0  0  0  0  0  0  0  0  0  0  0
    2.8032   -0.1572    0.3135 C   0  0  1  0  0  0  0  0  0  0  0  0
    1.8256   -1.2950    0.0272 C   0  0  0  0  0  0  0  0  0  0  0  0
    4.0200   -2.0156    1.4804 C   0  0  0  0  0  0  0  0  0  0  0  0
    2.6821   -2.3880    2.0994 C   0  0  0  0  0  0  0  0  0  0  0  0
    2.1708    0.9061    1.1539 C   0  0  0  0  0  0  0  0  0  0  0  0
    5.8874   -0.9464   -0.7325 C   0  0  0  0  0  0  0  0  0  0  0  0
    0.3344   -2.7489    1.4777 C   0  0  0  0  0  0  0  0  0  0  0  0
    7.2201   -0.5601   -1.3596 C   0  0  0  0  0  0  0  0  0  0  0  0
    0.9791    1.6309    0.6294 C   0  0  0  0  0  0  0  0  0  0  0  0
   -0.7939   -2.4675    0.5176 C   0  0  0  0  0  0  0  0  0  0  0  0
   -2.0603   -3.1899    0.9544 C   0  0  0  0  0  0  0  0  0  0  0  0
    0.8240    1.8156   -0.7445 C   0  0  0  0  0  0  0  0  0  0  0  0
    0.0188    2.1251    1.5122 C   0  0  0  0  0  0  0  0  0  0  0  0
    7.6122   -1.4504   -2.5332 C   0  0  0  0  0  0  0  0  0  0  0  0
   -3.2269   -2.9628    0.0238 C   0  0  0  0  0  0  0  0  0  0  0  0
   -0.2912    2.4946   -1.2355 C   0  0  0  0  0  0  0  0  0  0  0  0
   -1.0963    2.8039    1.0213 C   0  0  0  0  0  0  0  0  0  0  0  0
   -1.2514    2.9887   -0.3526 C   0  0  0  0  0  0  0  0  0  0  0  0
   -4.0942   -1.8920    0.2401 C   0  0  0  0  0  0  0  0  0  0  0  0
   -2.1225    3.3338    1.9653 C   0  0  0  0  0  0  0  0  0  0  0  0
   -0.4581    2.6912   -2.7045 C   0  0  0  0  0  0  0  0  0  0  0  0
   -3.4371   -3.8240   -1.0530 C   0  0  0  0  0  0  0  0  0  0  0  0
   -5.1718   -1.6825   -0.6205 C   0  0  0  0  0  0  0  0  0  0  0  0
   -4.5147   -3.6146   -1.9136 C   0  0  0  0  0  0  0  0  0  0  0  0
   -5.3820   -2.5439   -1.6973 C   0  0  0  0  0  0  0  0  0  0  0  0
   -6.1000   -0.5384   -0.3883 C   0  0  0  0  0  0  0  0  0  0  0  0
    3.1306    0.2728   -0.6371 H   0  0  0  0  0  0  0  0  0  0  0  0
    2.2661   -1.9627   -0.7251 H   0  0  0  0  0  0  0  0  0  0  0  0
    0.8976   -0.9272   -0.4106 H   0  0  0  0  0  0  0  0  0  0  0  0
    4.1995   -2.6506    0.6076 H   0  0  0  0  0  0  0  0  0  0  0  0
    4.8124   -2.1929    2.2144 H   0  0  0  0  0  0  0  0  0  0  0  0
    2.6810   -3.4429    2.3961 H   0  0  0  0  0  0  0  0  0  0  0  0
    2.4959   -1.7949    3.0032 H   0  0  0  0  0  0  0  0  0  0  0  0
    5.0680   -0.8624   -1.4503 H   0  0  0  0  0  0  0  0  0  0  0  0
    5.9611   -1.9762   -0.3759 H   0  0  0  0  0  0  0  0  0  0  0  0
    8.0121   -0.6144   -0.6026 H   0  0  0  0  0  0  0  0  0  0  0  0
    7.1855    0.4854   -1.6906 H   0  0  0  0  0  0  0  0  0  0  0  0
   -0.4995   -2.7927   -0.4867 H   0  0  0  0  0  0  0  0  0  0  0  0
   -0.9844   -1.3883    0.4978 H   0  0  0  0  0  0  0  0  0  0  0  0
   -2.3482   -2.8755    1.9669 H   0  0  0  0  0  0  0  0  0  0  0  0
   -1.8757   -4.2702    1.0306 H   0  0  0  0  0  0  0  0  0  0  0  0
    1.5678    1.4541   -1.4468 H   0  0  0  0  0  0  0  0  0  0  0  0
    0.1392    1.9758    2.5823 H   0  0  0  0  0  0  0  0  0  0  0  0
    7.6937   -2.4958   -2.2200 H   0  0  0  0  0  0  0  0  0  0  0  0
    8.5788   -1.1385   -2.9398 H   0  0  0  0  0  0  0  0  0  0  0  0
   -2.1210    3.5177   -0.7353 H   0  0  0  0  0  0  0  0  0  0  0  0
   -3.9310   -1.2176    1.0775 H   0  0  0  0  0  0  0  0  0  0  0  0
   -2.7670   -4.6604   -1.2332 H   0  0  0  0  0  0  0  0  0  0  0  0
   -4.6780   -4.2851   -2.7524 H   0  0  0  0  0  0  0  0  0  0  0  0
   -6.2157   -2.3972   -2.3784 H   0  0  0  0  0  0  0  0  0  0  0  0
  1 31  1  0  0  0  0
  2 12  2  0  0  0  0
  2 13  2  0  0  0  0
  2 16  1  0  0  0  0
  2 23  1  0  0  0  0
  3 37  1  0  0  0  0
  4 37  1  0  0  0  0
  5 37  1  0  0  0  0
  6 38  1  0  0  0  0
  7 38  1  0  0  0  0
  8 38  1  0  0  0  0
  9 43  1  0  0  0  0
 10 43  1  0  0  0  0
 11 43  1  0  0  0  0
 14 22  2  0  0  0  0
 15 24  2  0  0  0  0
 16 18  1  0  0  0  0
 16 20  1  0  0  0  0
 17 19  1  0  0  0  0
 17 21  1  0  0  0  0
 17 24  1  0  0  0  0
 18 19  1  0  0  0  0
 18 22  1  0  0  0  0
 18 44  1  0  0  0  0
 19 45  1  0  0  0  0
 19 46  1  0  0  0  0
 20 21  1  0  0  0  0
 20 47  1  0  0  0  0
 20 48  1  0  0  0  0
 21 49  1  0  0  0  0
 21 50  1  0  0  0  0
 22 26  1  0  0  0  0
 23 25  1  0  0  0  0
 23 51  1  0  0  0  0
 23 52  1  0  0  0  0
 24 27  1  0  0  0  0
 25 31  1  0  0  0  0
 25 53  1  0  0  0  0
 25 54  1  0  0  0  0
 26 29  2  0  0  0  0
 26 30  1  0  0  0  0
 27 28  1  0  0  0  0
 27 55  1  0  0  0  0
 27 56  1  0  0  0  0
 28 32  1  0  0  0  0
 28 57  1  0  0  0  0
 28 58  1  0  0  0  0
 29 33  1  0  0  0  0
 29 59  1  0  0  0  0
 30 34  2  0  0  0  0
 30 60  1  0  0  0  0
 31 61  1  0  0  0  0
 31 62  1  0  0  0  0
 32 36  2  0  0  0  0
 32 39  1  0  0  0  0
 33 35  2  0  0  0  0
 33 38  1  0  0  0  0
 34 35  1  0  0  0  0
 34 37  1  0  0  0  0
 35 63  1  0  0  0  0
 36 40  1  0  0  0  0
 36 64  1  0  0  0  0
 39 41  2  0  0  0  0
 39 65  1  0  0  0  0
 40 42  2  0  0  0  0
 40 43  1  0  0  0  0
 41 42  1  0  0  0  0
 41 66  1  0  0  0  0
 42 67  1  0  0  0  0
M  END
> <PUBCHEM_COMPOUND_CID>
10168652

> <PUBCHEM_CONFORMER_RMSD>
1.8

> <PUBCHEM_CONFORMER_DIVERSEORDER>
3
41
42
2
83
27
14
115
106
25
55
46
107
31
56
108
45
39
33
47
66
82
62
86
67
113
114
21
10
5
102
88
95
77
111
61
28
75
101
72
30
78
104
87
44
80
19
65
64
54
63
92
96
16
103
89
81
110
98
97
13
93
15
74
6
22
38
58
40
29
68
12
18
76
23
99
85
52
71
51
84
91
79
8
105
35
109
112
24
53
94
9
69
7
36
60
57
11
1
43
48
26
50
73
90
34
49
20
4
59
17
32
37
100
70

> <PUBCHEM_MMFF94_PARTIAL_CHARGES>
49
1 -0.29
10 -0.34
11 -0.34
12 -0.65
13 -0.65
14 -0.57
15 -0.57
16 -0.85
17 -0.66
18 0.42
19 0.3
2 1.33
20 0.36
21 0.3
22 0.42
23 0.11
24 0.57
26 0.09
27 0.06
28 0.14
29 -0.15
3 -0.34
30 -0.15
31 0.29
32 -0.14
33 -0.14
34 -0.14
35 -0.15
36 -0.15
37 1.16
38 1.16
39 -0.15
4 -0.34
40 -0.14
41 -0.15
42 -0.15
43 1.16
5 -0.34
59 0.15
6 -0.34
60 0.15
63 0.15
64 0.15
65 0.15
66 0.15
67 0.15
7 -0.34
8 -0.34
9 -0.34

> <PUBCHEM_EFFECTIVE_ROTOR_COUNT>
14.2

> <PUBCHEM_PHARMACOPHORE_FEATURES>
7
1 12 acceptor
1 13 acceptor
1 14 acceptor
1 15 acceptor
6 16 17 18 19 20 21 rings
6 26 29 30 33 34 35 rings
6 32 36 39 40 41 42 rings

> <PUBCHEM_HEAVY_ATOM_COUNT>
43

> <PUBCHEM_ATOM_DEF_STEREO_COUNT>
0

> <PUBCHEM_ATOM_UDEF_STEREO_COUNT>
1

> <PUBCHEM_BOND_DEF_STEREO_COUNT>
0

> <PUBCHEM_BOND_UDEF_STEREO_COUNT>
0

> <PUBCHEM_ISOTOPIC_ATOM_COUNT>
0

> <PUBCHEM_COMPONENT_COUNT>
1

> <PUBCHEM_CACTVS_TAUTO_COUNT>
2

> <PUBCHEM_CONFORMER_ID>
009B294C00000003

> <PUBCHEM_MMFF94_ENERGY>
80.2516

> <PUBCHEM_FEATURE_SELFOVERLAP>
35.541

> <PUBCHEM_SHAPE_FINGERPRINT>
10049733 16 18339373989114625182
10190206 1 18261407650286991118
10439779 11 17834929221301386267
10675989 125 17895745331606209698
10815517 723 18409739442951642753
11513181 2 17838892994794361678
12156800 1 18055384424684008092
12788726 201 18341889663124034179
14068700 675 18339918315768428865
14294032 229 18115024092239672116
15210252 30 17750226088165688702
15297060 5 17775008921827611659
20764821 26 17608890349711066823
21641784 216 18040715875103434462
244849 19 16988268795536736026
437795 70 18343026592290939138
463206 1 18340481292345936827
469060 322 17894630301333191052
46939830 39 17531245114261964886
550186 83 17460564096277132913
66674814 147 18040989683447243497

> <PUBCHEM_SHAPE_MULTIPOLES>
791.74
16.06
5.77
3.37
9.05
2.8
-2.37
-12.1
-9.01
-6.82
0.54
2.81
1.24
-1.01

> <PUBCHEM_SHAPE_SELFOVERLAP>
1658.876

> <PUBCHEM_SHAPE_VOLUME>
453.1

> <PUBCHEM_COORDINATE_TYPE>
2
5
10

$$$$
