3082591
  -OEChem-02172602373D

 40 41  0     1  0  0  0  0  0999 V2000
   -2.8052    2.0870    1.2649 O   0  0  0  0  0  0  0  0  0  0  0  0
    2.0596    0.1180    0.1470 N   0  0  0  0  0  0  0  0  0  0  0  0
    0.7620    0.4410   -0.4452 C   0  0  1  0  0  0  0  0  0  0  0  0
   -0.4063    0.7721    0.4388 C   0  0  1  0  0  0  0  0  0  0  0  0
    0.2388    1.8475   -0.3852 C   0  0  0  0  0  0  0  0  0  0  0  0
   -1.7593    0.2873    0.0734 C   0  0  0  0  0  0  0  0  0  0  0  0
    3.1199    0.9003   -0.4874 C   0  0  0  0  0  0  0  0  0  0  0  0
    2.3361   -1.3127    0.0230 C   0  0  0  0  0  0  0  0  0  0  0  0
   -2.9080    0.9644    0.4997 C   0  0  0  0  0  0  0  0  0  0  0  0
   -1.8939   -0.8649   -0.7096 C   0  0  0  0  0  0  0  0  0  0  0  0
    4.4678    0.5864    0.1568 C   0  0  0  0  0  0  0  0  0  0  0  0
    1.2791   -2.1231    0.7691 C   0  0  0  0  0  0  0  0  0  0  0  0
   -4.1736    0.4955    0.1474 C   0  0  0  0  0  0  0  0  0  0  0  0
   -3.1596   -1.3338   -1.0617 C   0  0  0  0  0  0  0  0  0  0  0  0
    5.5858    1.4042   -0.4715 C   0  0  0  0  0  0  0  0  0  0  0  0
    1.5562   -3.6155    0.6737 C   0  0  0  0  0  0  0  0  0  0  0  0
   -4.2994   -0.6537   -0.6331 C   0  0  0  0  0  0  0  0  0  0  0  0
    0.6035   -0.0132   -1.4211 H   0  0  0  0  0  0  0  0  0  0  0  0
   -0.1969    0.8097    1.5067 H   0  0  0  0  0  0  0  0  0  0  0  0
   -0.2847    2.2263   -1.2560 H   0  0  0  0  0  0  0  0  0  0  0  0
    0.7871    2.6098    0.1557 H   0  0  0  0  0  0  0  0  0  0  0  0
    3.1650    0.7020   -1.5667 H   0  0  0  0  0  0  0  0  0  0  0  0
    2.9305    1.9730   -0.3649 H   0  0  0  0  0  0  0  0  0  0  0  0
    2.3827   -1.6253   -1.0284 H   0  0  0  0  0  0  0  0  0  0  0  0
    3.2809   -1.5914    0.4953 H   0  0  0  0  0  0  0  0  0  0  0  0
   -1.0440   -1.4171   -1.0927 H   0  0  0  0  0  0  0  0  0  0  0  0
    4.4341    0.7858    1.2344 H   0  0  0  0  0  0  0  0  0  0  0  0
    4.7691   -0.4550    0.0175 H   0  0  0  0  0  0  0  0  0  0  0  0
    1.2657   -1.8341    1.8276 H   0  0  0  0  0  0  0  0  0  0  0  0
    0.2776   -1.9638    0.3849 H   0  0  0  0  0  0  0  0  0  0  0  0
   -5.0704    1.0151    0.4742 H   0  0  0  0  0  0  0  0  0  0  0  0
   -3.2582   -2.2249   -1.6748 H   0  0  0  0  0  0  0  0  0  0  0  0
    5.6738    1.1934   -1.5423 H   0  0  0  0  0  0  0  0  0  0  0  0
    5.4050    2.4766   -0.3460 H   0  0  0  0  0  0  0  0  0  0  0  0
    6.5437    1.1654    0.0015 H   0  0  0  0  0  0  0  0  0  0  0  0
    1.5428   -3.9510   -0.3683 H   0  0  0  0  0  0  0  0  0  0  0  0
    2.5322   -3.8635    1.1030 H   0  0  0  0  0  0  0  0  0  0  0  0
    0.7935   -4.1785    1.2212 H   0  0  0  0  0  0  0  0  0  0  0  0
   -5.2847   -1.0182   -0.9085 H   0  0  0  0  0  0  0  0  0  0  0  0
   -3.6976    2.4186    1.4641 H   0  0  0  0  0  0  0  0  0  0  0  0
  1  9  1  0  0  0  0
  1 40  1  0  0  0  0
  2  3  1  0  0  0  0
  2  7  1  0  0  0  0
  2  8  1  0  0  0  0
  3  4  1  0  0  0  0
  3  5  1  0  0  0  0
  3 18  1  0  0  0  0
  4  5  1  0  0  0  0
  4  6  1  0  0  0  0
  4 19  1  0  0  0  0
  5 20  1  0  0  0  0
  5 21  1  0  0  0  0
  6  9  1  0  0  0  0
  6 10  2  0  0  0  0
  7 11  1  0  0  0  0
  7 22  1  0  0  0  0
  7 23  1  0  0  0  0
  8 12  1  0  0  0  0
  8 24  1  0  0  0  0
  8 25  1  0  0  0  0
  9 13  2  0  0  0  0
 10 14  1  0  0  0  0
 10 26  1  0  0  0  0
 11 15  1  0  0  0  0
 11 27  1  0  0  0  0
 11 28  1  0  0  0  0
 12 16  1  0  0  0  0
 12 29  1  0  0  0  0
 12 30  1  0  0  0  0
 13 17  1  0  0  0  0
 13 31  1  0  0  0  0
 14 17  2  0  0  0  0
 14 32  1  0  0  0  0
 15 33  1  0  0  0  0
 15 34  1  0  0  0  0
 15 35  1  0  0  0  0
 16 36  1  0  0  0  0
 16 37  1  0  0  0  0
 16 38  1  0  0  0  0
 17 39  1  0  0  0  0
M  END
> <PUBCHEM_COMPOUND_CID>
3082591

> <PUBCHEM_CONFORMER_RMSD>
0.8

> <PUBCHEM_CONFORMER_DIVERSEORDER>
1
9
25
19
13
10
6
16
14
23
22
8
11
17
24
15
5
7
21
3
26
12
18
4
2
20

> <PUBCHEM_MMFF94_PARTIAL_CHARGES>
22
1 -0.53
10 -0.15
13 -0.15
14 -0.15
17 -0.15
18 0.1
19 0.1
2 -0.7
20 0.1
21 0.1
26 0.15
3 0.06
31 0.15
32 0.15
39 0.15
4 -0.07
40 0.45
5 -0.2
6 -0.03
7 0.27
8 0.27
9 0.08

> <PUBCHEM_EFFECTIVE_ROTOR_COUNT>
6.6

> <PUBCHEM_PHARMACOPHORE_FEATURES>
5
1 1 donor
1 15 hydrophobe
1 16 hydrophobe
1 2 cation
6 6 9 10 13 14 17 rings

> <PUBCHEM_HEAVY_ATOM_COUNT>
17

> <PUBCHEM_ATOM_DEF_STEREO_COUNT>
2

> <PUBCHEM_ATOM_UDEF_STEREO_COUNT>
0

> <PUBCHEM_BOND_DEF_STEREO_COUNT>
0

> <PUBCHEM_BOND_UDEF_STEREO_COUNT>
0

> <PUBCHEM_ISOTOPIC_ATOM_COUNT>
0

> <PUBCHEM_COMPONENT_COUNT>
1

> <PUBCHEM_CACTVS_TAUTO_COUNT>
3

> <PUBCHEM_CONFORMER_ID>
002F095F00000001

> <PUBCHEM_MMFF94_ENERGY>
32.5504

> <PUBCHEM_FEATURE_SELFOVERLAP>
25.371

> <PUBCHEM_SHAPE_FINGERPRINT>
11806522 49 18341890856771332036
12236239 1 18412826893156571069
13032168 30 18270401705907825139
13083527 12 17752461219306666466
13760787 19 18272088279751848493
14787075 74 18129379466006590224
15279307 12 18412825780802473295
15375358 24 17676488336843480097
15375462 189 18341894065375548979
15536298 74 18343302522633331446
15669948 3 17917983967473321727
19422 9 18271244915372793967
200 152 18340763831989220293
20279233 1 16298107579447016921
204376 136 18187087299541016110
20645477 70 18114170883378746083
21054139 6 18338790238355417326
21267235 1 18200318848181473743
22445834 79 18412262796773799355
2255824 54 18334576896865261884
23402539 116 18340766031281611740
23463225 33 18268426833148967647
23493267 7 17131559340394294449
23559900 14 17272858593592594638
23566358 27 18266464196282633214
23598291 2 18270117894484774991
2748010 2 16396060540772456591
2871803 45 18410569582978914574
3312278 4 18340204189239815927
34934 24 18411980226522678757
474 4 18260834825539059404
474229 33 18261672662242404466
603831 33 18272358781055515167
633830 44 18412553102488140124
7364860 26 18267304227629851010

> <PUBCHEM_SHAPE_MULTIPOLES>
339
9.17
2.67
0.94
4.71
2.62
-0.02
-3.13
1.24
1.42
-0.71
-0.46
0.02
-1.48

> <PUBCHEM_SHAPE_SELFOVERLAP>
686.958

> <PUBCHEM_SHAPE_VOLUME>
200.2

> <PUBCHEM_COORDINATE_TYPE>
2
5
10

$$$$
