222653
  -OEChem-02172602413D

 36 37  0     1  0  0  0  0  0999 V2000
    5.1014    2.3210    0.5578 Cl  0  0  0  0  0  0  0  0  0  0  0  0
    6.7229   -2.6628   -0.6873 Cl  0  0  0  0  0  0  0  0  0  0  0  0
    2.3773    1.0552    0.6525 O   0  0  0  0  0  0  0  0  0  0  0  0
   -0.0397    0.3460    1.4625 O   0  0  0  0  0  0  0  0  0  0  0  0
   -6.6446   -1.1244    1.4054 O   0  0  0  0  0  0  0  0  0  0  0  0
   -7.2801   -0.6623   -0.7275 O   0  0  0  0  0  0  0  0  0  0  0  0
   -1.0041    0.7541   -0.6389 N   0  0  0  0  0  0  0  0  0  0  0  0
    1.3452    1.1936   -0.3111 C   0  0  1  0  0  0  0  0  0  0  0  0
    0.0271    0.7170    0.2941 C   0  0  0  0  0  0  0  0  0  0  0  0
    1.2653    2.6460   -0.7573 C   0  0  0  0  0  0  0  0  0  0  0  0
   -2.3576    0.3890   -0.4442 C   0  0  0  0  0  0  0  0  0  0  0  0
    3.4072    0.2043    0.3411 C   0  0  0  0  0  0  0  0  0  0  0  0
   -3.2443    0.4872   -1.5036 C   0  0  0  0  0  0  0  0  0  0  0  0
   -2.7660   -0.0595    0.8008 C   0  0  0  0  0  0  0  0  0  0  0  0
   -5.0058   -0.3270   -0.0647 C   0  0  0  0  0  0  0  0  0  0  0  0
   -4.5781    0.1267   -1.3123 C   0  0  0  0  0  0  0  0  0  0  0  0
   -4.0999   -0.4201    0.9919 C   0  0  0  0  0  0  0  0  0  0  0  0
    4.7170    0.6652    0.2648 C   0  0  0  0  0  0  0  0  0  0  0  0
    3.1124   -1.1340    0.1032 C   0  0  0  0  0  0  0  0  0  0  0  0
    5.7447   -0.2229   -0.0535 C   0  0  0  0  0  0  0  0  0  0  0  0
    4.1399   -2.0218   -0.2149 C   0  0  0  0  0  0  0  0  0  0  0  0
    5.4560   -1.5664   -0.2932 C   0  0  0  0  0  0  0  0  0  0  0  0
   -6.3963   -0.7041    0.1346 C   0  0  0  0  0  0  0  0  0  0  0  0
    1.5415    0.5813   -1.2026 H   0  0  0  0  0  0  0  0  0  0  0  0
    1.0013    3.2949    0.0856 H   0  0  0  0  0  0  0  0  0  0  0  0
    0.5268    2.8029   -1.5486 H   0  0  0  0  0  0  0  0  0  0  0  0
    2.2386    2.9871   -1.1262 H   0  0  0  0  0  0  0  0  0  0  0  0
   -0.7765    1.0595   -1.5822 H   0  0  0  0  0  0  0  0  0  0  0  0
   -2.9212    0.8392   -2.4792 H   0  0  0  0  0  0  0  0  0  0  0  0
   -2.1277   -0.1570    1.6662 H   0  0  0  0  0  0  0  0  0  0  0  0
   -5.2681    0.2062   -2.1482 H   0  0  0  0  0  0  0  0  0  0  0  0
   -4.3918   -0.7679    1.9790 H   0  0  0  0  0  0  0  0  0  0  0  0
    2.0946   -1.5072    0.1712 H   0  0  0  0  0  0  0  0  0  0  0  0
    6.7717    0.1311   -0.1149 H   0  0  0  0  0  0  0  0  0  0  0  0
    3.9007   -3.0663   -0.3971 H   0  0  0  0  0  0  0  0  0  0  0  0
   -7.5845   -1.3767    1.5292 H   0  0  0  0  0  0  0  0  0  0  0  0
  1 18  1  0  0  0  0
  2 22  1  0  0  0  0
  3  8  1  0  0  0  0
  3 12  1  0  0  0  0
  4  9  2  0  0  0  0
  5 23  1  0  0  0  0
  5 36  1  0  0  0  0
  6 23  2  0  0  0  0
  7  9  1  0  0  0  0
  7 11  1  0  0  0  0
  7 28  1  0  0  0  0
  8  9  1  0  0  0  0
  8 10  1  0  0  0  0
  8 24  1  0  0  0  0
 10 25  1  0  0  0  0
 10 26  1  0  0  0  0
 10 27  1  0  0  0  0
 11 13  2  0  0  0  0
 11 14  1  0  0  0  0
 12 18  2  0  0  0  0
 12 19  1  0  0  0  0
 13 16  1  0  0  0  0
 13 29  1  0  0  0  0
 14 17  2  0  0  0  0
 14 30  1  0  0  0  0
 15 16  2  0  0  0  0
 15 17  1  0  0  0  0
 15 23  1  0  0  0  0
 16 31  1  0  0  0  0
 17 32  1  0  0  0  0
 18 20  1  0  0  0  0
 19 21  2  0  0  0  0
 19 33  1  0  0  0  0
 20 22  2  0  0  0  0
 20 34  1  0  0  0  0
 21 22  1  0  0  0  0
 21 35  1  0  0  0  0
M  END
> <PUBCHEM_COMPOUND_CID>
222653

> <PUBCHEM_CONFORMER_RMSD>
0.8

> <PUBCHEM_CONFORMER_DIVERSEORDER>
1
15
57
69
44
75
51
29
45
7
67
77
74
59
70
49
14
47
38
16
62
37
39
54
19
35
61
24
65
71
17
4
76
43
78
13
63
25
55
42
41
11
31
68
60
2
30
52
72
6
23
66
40
34
58
26
3
5
22
73
28
18
33
10
53
36
64
8
56
21
32
48
50
46
20
12
27
9

> <PUBCHEM_MMFF94_PARTIAL_CHARGES>
31
1 -0.18
11 0.12
12 0.08
13 -0.15
14 -0.15
15 0.09
16 -0.15
17 -0.15
18 0.18
19 -0.15
2 -0.18
20 -0.15
21 -0.15
22 0.18
23 0.63
28 0.37
29 0.15
3 -0.36
30 0.15
31 0.15
32 0.15
33 0.15
34 0.15
35 0.15
36 0.5
4 -0.57
5 -0.65
6 -0.57
7 -0.55
8 0.34
9 0.57

> <PUBCHEM_EFFECTIVE_ROTOR_COUNT>
6

> <PUBCHEM_PHARMACOPHORE_FEATURES>
8
1 3 acceptor
1 4 acceptor
1 5 acceptor
1 6 acceptor
1 7 donor
3 5 6 23 anion
6 11 13 14 15 16 17 rings
6 12 18 19 20 21 22 rings

> <PUBCHEM_HEAVY_ATOM_COUNT>
23

> <PUBCHEM_ATOM_DEF_STEREO_COUNT>
0

> <PUBCHEM_ATOM_UDEF_STEREO_COUNT>
1

> <PUBCHEM_BOND_DEF_STEREO_COUNT>
0

> <PUBCHEM_BOND_UDEF_STEREO_COUNT>
0

> <PUBCHEM_ISOTOPIC_ATOM_COUNT>
0

> <PUBCHEM_COMPONENT_COUNT>
1

> <PUBCHEM_CACTVS_TAUTO_COUNT>
3

> <PUBCHEM_CONFORMER_ID>
000365BD00000001

> <PUBCHEM_MMFF94_ENERGY>
72.0502

> <PUBCHEM_FEATURE_SELFOVERLAP>
40.663

> <PUBCHEM_SHAPE_FINGERPRINT>
10299344 5 17775567545946988430
11089746 13 8935006966524007057
12166972 35 18272370892826756505
12236239 1 17846781819140869889
12516196 113 18409164419940487740
12596602 18 17489304239031184227
12616971 3 17561356275592356452
13073987 5 18343302556697943768
13402501 40 18259707795861081115
13533116 47 18201438103642268104
13668630 136 18408042909780424043
13673619 4 18341896251930770276
13685833 64 18410294704971756443
13955234 65 18272642490106439920
14170010 4 18335700589254061108
14251757 52 13973675183594352626
14251764 18 17346878988117297981
14341114 176 18411139155924925781
15183329 4 14779268596273382942
15348495 7 12679165146313566095
17844677 252 18411703166519446156
1813 80 18200888300409939516
19784866 240 18410299094639323029
20028762 73 17988923328348748078
20554085 129 14405189439595367871
20645477 70 18410007728732568970
21033650 10 16444191898602013236
21150785 3 11819277785146309475
21267235 1 18271811181874450318
21344244 181 18261117357152267258
21365058 113 17967541172218598277
21623969 137 18413110554261417230
21682296 61 18411142398593780695
220451 1 17774720964843040693
22061861 79 18334855008813787166
221357 26 18040712567498756717
2215653 11 18186796989742815535
2297311 6 17530965774585723653
2303208 19 18186802473898970903
23081809 10 17346874580964199421
23522609 53 17416426426784220105
23559900 14 17604147151111902893
239999 70 18114178649423110656
2871803 45 18261391097319287498
3004659 81 17530686506931994220
33382 64 18343019965303626850
3411729 13 14834974352963639146
345986 75 17774433868123418234
34797466 226 17531252785506325140
351380 3 18060697269333369014
4340502 62 18130495436370713040
437815 12 18259985981425359101
46194498 28 17748826353908006772
465052 167 18273216370519351958
5104073 3 18270675368766591544
54039377 194 18129948863370886502
5718773 13 18191020102711486930
59755656 215 17676482848429495363
70251023 43 18340488851546230888

> <PUBCHEM_SHAPE_MULTIPOLES>
448.61
19.2
2.19
1.14
12.08
0.19
0.02
-10.73
0.38
-4.9
0.29
1.28
0.04
1.51

> <PUBCHEM_SHAPE_SELFOVERLAP>
939.908

> <PUBCHEM_SHAPE_VOLUME>
254.9

> <PUBCHEM_COORDINATE_TYPE>
2
5
10

$$$$
