1742212
  -OEChem-02172602373D

 67 71  0     1  0  0  0  0  0999 V2000
   -2.4958    0.4838    1.0055 O   0  0  0  0  0  0  0  0  0  0  0  0
   -4.4050   -1.6283    0.8736 N   0  3  0  0  0  0  0  0  0  0  0  0
   -0.1113    0.3836   -0.5743 N   0  0  0  0  0  0  0  0  0  0  0  0
   -3.5877   -1.2246   -0.2978 C   0  0  0  0  0  0  0  0  0  0  0  0
   -2.2521   -0.6309    0.1472 C   0  0  1  0  0  0  0  0  0  0  0  0
   -1.3722   -0.1757   -1.0219 C   0  0  0  0  0  0  0  0  0  0  0  0
    0.1614    1.7021   -0.2716 C   0  0  0  0  0  0  0  0  0  0  0  0
    1.0040   -0.3889   -0.3977 C   0  0  0  0  0  0  0  0  0  0  0  0
    1.5055    1.7546    0.1094 C   0  0  0  0  0  0  0  0  0  0  0  0
    2.0225    0.4315    0.0252 C   0  0  0  0  0  0  0  0  0  0  0  0
   -5.7124   -2.2681    0.4762 C   0  0  0  0  0  0  0  0  0  0  0  0
   -3.6418   -2.5005    1.8398 C   0  0  0  0  0  0  0  0  0  0  0  0
   -0.6624    2.8562   -0.3009 C   0  0  0  0  0  0  0  0  0  0  0  0
    1.0119   -1.8193   -0.6400 C   0  0  0  0  0  0  0  0  0  0  0  0
    2.0625    2.9943    0.4768 C   0  0  0  0  0  0  0  0  0  0  0  0
   -0.0813    4.0924    0.0727 C   0  0  0  0  0  0  0  0  0  0  0  0
    3.3508   -0.0388    0.3115 C   0  0  0  0  0  0  0  0  0  0  0  0
   -6.4954   -1.3053   -0.3892 C   0  0  0  0  0  0  0  0  0  0  0  0
   -3.2416   -3.7831    1.1439 C   0  0  0  0  0  0  0  0  0  0  0  0
    1.2655    4.1455    0.4544 C   0  0  0  0  0  0  0  0  0  0  0  0
   -2.0161    2.7908   -0.6862 C   0  0  0  0  0  0  0  0  0  0  0  0
   -0.8839    5.2435    0.0492 C   0  0  0  0  0  0  0  0  0  0  0  0
    0.6971   -2.6961    0.3927 C   0  0  0  0  0  0  0  0  0  0  0  0
    1.3355   -2.3016   -1.9038 C   0  0  0  0  0  0  0  0  0  0  0  0
    3.6761   -0.4634    1.5989 C   0  0  0  0  0  0  0  0  0  0  0  0
    4.3110   -0.0694   -0.6986 C   0  0  0  0  0  0  0  0  0  0  0  0
   -2.7893    3.9505   -0.7001 C   0  0  0  0  0  0  0  0  0  0  0  0
   -2.2258    5.1716   -0.3339 C   0  0  0  0  0  0  0  0  0  0  0  0
    0.7060   -4.0712    0.1591 C   0  0  0  0  0  0  0  0  0  0  0  0
    1.3443   -3.6768   -2.1375 C   0  0  0  0  0  0  0  0  0  0  0  0
    4.9646   -0.9198    1.8768 C   0  0  0  0  0  0  0  0  0  0  0  0
    5.5994   -0.5259   -0.4207 C   0  0  0  0  0  0  0  0  0  0  0  0
    1.0296   -4.5615   -1.1060 C   0  0  0  0  0  0  0  0  0  0  0  0
    5.9263   -0.9510    0.8671 C   0  0  0  0  0  0  0  0  0  0  0  0
   -4.6375   -0.7694    1.3912 H   0  0  0  0  0  0  0  0  0  0  0  0
   -4.1420   -0.4386   -0.8211 H   0  0  0  0  0  0  0  0  0  0  0  0
   -3.4629   -2.0767   -0.9738 H   0  0  0  0  0  0  0  0  0  0  0  0
   -1.6781   -1.3610    0.7179 H   0  0  0  0  0  0  0  0  0  0  0  0
   -1.8345    0.4778   -1.7578 H   0  0  0  0  0  0  0  0  0  0  0  0
   -1.1573   -1.0582   -1.6362 H   0  0  0  0  0  0  0  0  0  0  0  0
   -5.5180   -3.1889   -0.0794 H   0  0  0  0  0  0  0  0  0  0  0  0
   -6.2600   -2.4899    1.3978 H   0  0  0  0  0  0  0  0  0  0  0  0
   -2.8037   -1.9463    2.2674 H   0  0  0  0  0  0  0  0  0  0  0  0
   -4.3218   -2.7171    2.6721 H   0  0  0  0  0  0  0  0  0  0  0  0
    3.1041    3.0685    0.7779 H   0  0  0  0  0  0  0  0  0  0  0  0
   -7.5212   -1.6717   -0.5064 H   0  0  0  0  0  0  0  0  0  0  0  0
   -6.5507   -0.3066    0.0562 H   0  0  0  0  0  0  0  0  0  0  0  0
   -6.0795   -1.2219   -1.3981 H   0  0  0  0  0  0  0  0  0  0  0  0
   -2.6565   -4.3908    1.8445 H   0  0  0  0  0  0  0  0  0  0  0  0
   -4.0953   -4.4013    0.8550 H   0  0  0  0  0  0  0  0  0  0  0  0
   -2.6042   -3.6284    0.2702 H   0  0  0  0  0  0  0  0  0  0  0  0
   -1.6918    0.6353    1.5306 H   0  0  0  0  0  0  0  0  0  0  0  0
    1.7181    5.0928    0.7428 H   0  0  0  0  0  0  0  0  0  0  0  0
   -2.5693    1.9155   -0.9623 H   0  0  0  0  0  0  0  0  0  0  0  0
   -0.4719    6.2106    0.3302 H   0  0  0  0  0  0  0  0  0  0  0  0
    0.4506   -2.3305    1.3864 H   0  0  0  0  0  0  0  0  0  0  0  0
    1.5830   -1.6242   -2.7172 H   0  0  0  0  0  0  0  0  0  0  0  0
    2.9379   -0.4456    2.3974 H   0  0  0  0  0  0  0  0  0  0  0  0
    4.0726    0.2584   -1.7076 H   0  0  0  0  0  0  0  0  0  0  0  0
   -3.8351    3.9039   -0.9906 H   0  0  0  0  0  0  0  0  0  0  0  0
   -2.8331    6.0723   -0.3447 H   0  0  0  0  0  0  0  0  0  0  0  0
    0.4616   -4.7599    0.9625 H   0  0  0  0  0  0  0  0  0  0  0  0
    1.5963   -4.0587   -3.1225 H   0  0  0  0  0  0  0  0  0  0  0  0
    5.2190   -1.2511    2.8794 H   0  0  0  0  0  0  0  0  0  0  0  0
    6.3483   -0.5504   -1.2069 H   0  0  0  0  0  0  0  0  0  0  0  0
    1.0365   -5.6322   -1.2879 H   0  0  0  0  0  0  0  0  0  0  0  0
    6.9295   -1.3065    1.0833 H   0  0  0  0  0  0  0  0  0  0  0  0
  1  5  1  0  0  0  0
  1 52  1  0  0  0  0
  2  4  1  0  0  0  0
  2 11  1  0  0  0  0
  2 12  1  0  0  0  0
  2 35  1  0  0  0  0
  3  6  1  0  0  0  0
  3  7  1  0  0  0  0
  3  8  1  0  0  0  0
  4  5  1  0  0  0  0
  4 36  1  0  0  0  0
  4 37  1  0  0  0  0
  5  6  1  0  0  0  0
  5 38  1  0  0  0  0
  6 39  1  0  0  0  0
  6 40  1  0  0  0  0
  7  9  2  0  0  0  0
  7 13  1  0  0  0  0
  8 10  2  0  0  0  0
  8 14  1  0  0  0  0
  9 10  1  0  0  0  0
  9 15  1  0  0  0  0
 10 17  1  0  0  0  0
 11 18  1  0  0  0  0
 11 41  1  0  0  0  0
 11 42  1  0  0  0  0
 12 19  1  0  0  0  0
 12 43  1  0  0  0  0
 12 44  1  0  0  0  0
 13 16  1  0  0  0  0
 13 21  2  0  0  0  0
 14 23  2  0  0  0  0
 14 24  1  0  0  0  0
 15 20  2  0  0  0  0
 15 45  1  0  0  0  0
 16 20  1  0  0  0  0
 16 22  2  0  0  0  0
 17 25  2  0  0  0  0
 17 26  1  0  0  0  0
 18 46  1  0  0  0  0
 18 47  1  0  0  0  0
 18 48  1  0  0  0  0
 19 49  1  0  0  0  0
 19 50  1  0  0  0  0
 19 51  1  0  0  0  0
 20 53  1  0  0  0  0
 21 27  1  0  0  0  0
 21 54  1  0  0  0  0
 22 28  1  0  0  0  0
 22 55  1  0  0  0  0
 23 29  1  0  0  0  0
 23 56  1  0  0  0  0
 24 30  2  0  0  0  0
 24 57  1  0  0  0  0
 25 31  1  0  0  0  0
 25 58  1  0  0  0  0
 26 32  2  0  0  0  0
 26 59  1  0  0  0  0
 27 28  2  0  0  0  0
 27 60  1  0  0  0  0
 28 61  1  0  0  0  0
 29 33  2  0  0  0  0
 29 62  1  0  0  0  0
 30 33  1  0  0  0  0
 30 63  1  0  0  0  0
 31 34  2  0  0  0  0
 31 64  1  0  0  0  0
 32 34  1  0  0  0  0
 32 65  1  0  0  0  0
 33 66  1  0  0  0  0
 34 67  1  0  0  0  0
M  CHG  1   2   1
M  END
> <PUBCHEM_COMPOUND_CID>
1742212

> <PUBCHEM_CONFORMER_RMSD>
1

> <PUBCHEM_CONFORMER_DIVERSEORDER>
1
2

> <PUBCHEM_MMFF94_PARTIAL_CHARGES>
47
1 -0.68
10 -0.05
11 0.5
12 0.5
14 0.05
15 -0.15
17 0.05
2 -0.96
20 -0.15
21 -0.15
22 -0.15
23 -0.15
24 -0.15
25 -0.15
26 -0.15
27 -0.15
28 -0.15
29 -0.15
3 0.05
30 -0.15
31 -0.15
32 -0.15
33 -0.15
34 -0.15
35 0.45
4 0.5
45 0.15
5 0.28
52 0.4
53 0.15
54 0.15
55 0.15
56 0.15
57 0.15
58 0.15
59 0.15
6 0.26
60 0.15
61 0.15
62 0.15
63 0.15
64 0.15
65 0.15
66 0.15
67 0.15
7 -0.15
8 -0.2

> <PUBCHEM_EFFECTIVE_ROTOR_COUNT>
8

> <PUBCHEM_PHARMACOPHORE_FEATURES>
10
1 1 acceptor
1 1 donor
1 2 cation
1 2 donor
1 3 cation
5 3 7 8 9 10 rings
6 13 16 21 22 27 28 rings
6 14 23 24 29 30 33 rings
6 17 25 26 31 32 34 rings
6 7 9 13 15 16 20 rings

> <PUBCHEM_HEAVY_ATOM_COUNT>
34

> <PUBCHEM_ATOM_DEF_STEREO_COUNT>
1

> <PUBCHEM_ATOM_UDEF_STEREO_COUNT>
0

> <PUBCHEM_BOND_DEF_STEREO_COUNT>
0

> <PUBCHEM_BOND_UDEF_STEREO_COUNT>
0

> <PUBCHEM_ISOTOPIC_ATOM_COUNT>
0

> <PUBCHEM_COMPONENT_COUNT>
1

> <PUBCHEM_CACTVS_TAUTO_COUNT>
1

> <PUBCHEM_CONFORMER_ID>
001A958400000001

> <PUBCHEM_MMFF94_ENERGY>
112.1643

> <PUBCHEM_FEATURE_SELFOVERLAP>
50.863

> <PUBCHEM_SHAPE_FINGERPRINT>
10074138 170 17903603360367819576
10305334 12 17467607327215511842
10411042 1 18409729607465978912
1100329 8 17546166762693757032
11227688 84 18199744743765657150
12788726 201 18261966214788496706
131258 38 17389087147738311970
13140716 1 18341043051982305536
140371 6 18337952277535903005
14117953 113 18341613737498459103
14725015 67 18409720777155825546
14955137 171 18338803419947678062
15420108 30 17479163619625017136
15775530 1 17839754668460775694
15927050 60 17905606606023212755
18681886 176 18268427021784949531
20028762 73 18059293304554395575
20739085 24 18195545889506399009
20775438 99 17693070995605210111
21796203 349 17830492644221730555
22182313 1 17987802882769783174
22311459 1 18267300924273194324
23559900 14 18192428804565029955
255183 313 17916847119911794826
3380486 145 18194423116457262505
469060 322 18340499880120648064
5265222 85 18271799083569177990
5309563 4 18410290350354894847
6004065 56 18338509859402696367
9896288 288 18265880377615572626

> <PUBCHEM_SHAPE_MULTIPOLES>
683.87
9.93
7.7
1.43
1.48
6.39
-0.01
-7.27
-3.28
5.29
0.99
-0.58
-1.41
2.06

> <PUBCHEM_SHAPE_SELFOVERLAP>
1505.206

> <PUBCHEM_SHAPE_VOLUME>
371.1

> <PUBCHEM_COORDINATE_TYPE>
2
5
10

$$$$
