12315474
  -OEChem-02172602373D

 84 88  0     1  0  0  0  0  0999 V2000
    7.6863   -0.4008   -1.0437 O   0  0  0  0  0  0  0  0  0  0  0  0
   -3.7254    3.5541   -0.6206 O   0  0  0  0  0  0  0  0  0  0  0  0
   -2.7252    2.0720   -2.0345 O   0  0  0  0  0  0  0  0  0  0  0  0
   -4.5316   -2.9670    0.2047 O   0  0  0  0  0  0  0  0  0  0  0  0
   -5.5159   -1.4404    1.6322 O   0  0  0  0  0  0  0  0  0  0  0  0
    1.2020    0.2288    0.8136 C   0  0  2  0  0  0  0  0  0  0  0  0
    1.9358   -0.1218   -0.5372 C   0  0  1  0  0  0  0  0  0  0  0  0
    3.4045   -0.7147   -0.4176 C   0  0  2  0  0  0  0  0  0  0  0  0
   -0.1519    1.0391    0.4369 C   0  0  1  0  0  0  0  0  0  0  0  0
    4.2380    0.2996    0.4537 C   0  0  1  0  0  0  0  0  0  0  0  0
    2.1558    1.0749    1.7017 C   0  0  0  0  0  0  0  0  0  0  0  0
    3.5800    0.5172    1.8334 C   0  0  0  0  0  0  0  0  0  0  0  0
   -1.0414    0.1234   -0.4238 C   0  0  0  0  0  0  0  0  0  0  0  0
    5.7958    0.0625    0.4845 C   0  0  0  0  0  0  0  0  0  0  0  0
    1.0121   -0.8638   -1.5380 C   0  0  0  0  0  0  0  0  0  0  0  0
   -2.5373    0.0652   -0.0694 C   0  0  1  0  0  0  0  0  0  0  0  0
    4.0365   -0.7600   -1.8405 C   0  0  0  0  0  0  0  0  0  0  0  0
   -0.9402    1.4976    1.6951 C   0  0  0  0  0  0  0  0  0  0  0  0
   -3.1250    1.4554    0.2839 C   0  0  2  0  0  0  0  0  0  0  0  0
    0.8399   -1.0496    1.6286 C   0  0  0  0  0  0  0  0  0  0  0  0
   -2.2976    2.1599    1.3939 C   0  0  0  0  0  0  0  0  0  0  0  0
    6.3096   -0.0286   -0.9850 C   0  0  2  0  0  0  0  0  0  0  0  0
   -0.4685   -0.6743   -1.3477 C   0  0  0  0  0  0  0  0  0  0  0  0
    3.4039   -2.1561    0.1494 C   0  0  0  0  0  0  0  0  0  0  0  0
    5.5391   -1.0251   -1.8454 C   0  0  0  0  0  0  0  0  0  0  0  0
    0.1614    2.3221   -0.3996 C   0  0  0  0  0  0  0  0  0  0  0  0
   -3.4412   -0.7074   -1.0650 C   0  0  0  0  0  0  0  0  0  0  0  0
   -4.5902    1.3208    0.7579 C   0  0  0  0  0  0  0  0  0  0  0  0
   -4.9146   -0.8019   -0.6213 C   0  0  1  0  0  0  0  0  0  0  0  0
    6.2248   -1.1710    1.3040 C   0  0  0  0  0  0  0  0  0  0  0  0
    6.4920    1.2819    1.1512 C   0  0  0  0  0  0  0  0  0  0  0  0
   -5.4800    0.5711   -0.2361 C   0  0  0  0  0  0  0  0  0  0  0  0
   -3.1553    2.3634   -0.9284 C   0  0  0  0  0  0  0  0  0  0  0  0
   -5.7582   -1.4132   -1.7493 C   0  0  0  0  0  0  0  0  0  0  0  0
   -5.0353   -1.7479    0.5498 C   0  0  0  0  0  0  0  0  0  0  0  0
   -4.5829   -3.9656    1.2285 C   0  0  0  0  0  0  0  0  0  0  0  0
    2.1179    0.8494   -1.0180 H   0  0  0  0  0  0  0  0  0  0  0  0
    4.1337    1.2708   -0.0595 H   0  0  0  0  0  0  0  0  0  0  0  0
    1.7349    1.1871    2.7086 H   0  0  0  0  0  0  0  0  0  0  0  0
    2.2556    2.0890    1.3054 H   0  0  0  0  0  0  0  0  0  0  0  0
    4.1491    1.2474    2.4173 H   0  0  0  0  0  0  0  0  0  0  0  0
    3.5766   -0.3992    2.4290 H   0  0  0  0  0  0  0  0  0  0  0  0
    1.1927   -1.9420   -1.4993 H   0  0  0  0  0  0  0  0  0  0  0  0
    1.2643   -0.5530   -2.5595 H   0  0  0  0  0  0  0  0  0  0  0  0
   -2.5675   -0.5279    0.8587 H   0  0  0  0  0  0  0  0  0  0  0  0
    3.8618    0.1967   -2.3509 H   0  0  0  0  0  0  0  0  0  0  0  0
    3.5458   -1.5278   -2.4515 H   0  0  0  0  0  0  0  0  0  0  0  0
   -0.3410    2.2003    2.2868 H   0  0  0  0  0  0  0  0  0  0  0  0
   -1.1466    0.6492    2.3553 H   0  0  0  0  0  0  0  0  0  0  0  0
    1.7179   -1.5730    2.0042 H   0  0  0  0  0  0  0  0  0  0  0  0
    0.2647   -0.8100    2.5269 H   0  0  0  0  0  0  0  0  0  0  0  0
    0.2598   -1.7749    1.0521 H   0  0  0  0  0  0  0  0  0  0  0  0
   -2.8590    2.1735    2.3378 H   0  0  0  0  0  0  0  0  0  0  0  0
   -2.1196    3.2178    1.1658 H   0  0  0  0  0  0  0  0  0  0  0  0
    6.2325    0.9610   -1.4531 H   0  0  0  0  0  0  0  0  0  0  0  0
   -1.0748   -1.3316   -1.9623 H   0  0  0  0  0  0  0  0  0  0  0  0
    4.1885   -2.7805   -0.2857 H   0  0  0  0  0  0  0  0  0  0  0  0
    3.5599   -2.1885    1.2289 H   0  0  0  0  0  0  0  0  0  0  0  0
    2.4728   -2.6891   -0.0560 H   0  0  0  0  0  0  0  0  0  0  0  0
    5.7600   -2.0531   -1.5386 H   0  0  0  0  0  0  0  0  0  0  0  0
    5.9087   -0.9638   -2.8776 H   0  0  0  0  0  0  0  0  0  0  0  0
    0.8938    2.9665    0.0919 H   0  0  0  0  0  0  0  0  0  0  0  0
    0.5305    2.0966   -1.4050 H   0  0  0  0  0  0  0  0  0  0  0  0
   -0.7126    2.9553   -0.5551 H   0  0  0  0  0  0  0  0  0  0  0  0
   -3.3948   -0.2428   -2.0572 H   0  0  0  0  0  0  0  0  0  0  0  0
   -3.0405   -1.7192   -1.2029 H   0  0  0  0  0  0  0  0  0  0  0  0
   -5.0430    2.3007    0.9566 H   0  0  0  0  0  0  0  0  0  0  0  0
   -4.6044    0.8042    1.7249 H   0  0  0  0  0  0  0  0  0  0  0  0
    5.9765   -2.1132    0.8139 H   0  0  0  0  0  0  0  0  0  0  0  0
    7.3097   -1.1828    1.4645 H   0  0  0  0  0  0  0  0  0  0  0  0
    5.7642   -1.1740    2.2969 H   0  0  0  0  0  0  0  0  0  0  0  0
    6.2894    1.3338    2.2256 H   0  0  0  0  0  0  0  0  0  0  0  0
    7.5811    1.2269    1.0395 H   0  0  0  0  0  0  0  0  0  0  0  0
    6.1642    2.2235    0.6968 H   0  0  0  0  0  0  0  0  0  0  0  0
   -6.4853    0.4720    0.1940 H   0  0  0  0  0  0  0  0  0  0  0  0
   -5.6017    1.1849   -1.1381 H   0  0  0  0  0  0  0  0  0  0  0  0
    7.7658   -1.3340   -0.7844 H   0  0  0  0  0  0  0  0  0  0  0  0
   -5.7957   -0.7444   -2.6169 H   0  0  0  0  0  0  0  0  0  0  0  0
   -5.3546   -2.3707   -2.0981 H   0  0  0  0  0  0  0  0  0  0  0  0
   -6.7895   -1.5922   -1.4228 H   0  0  0  0  0  0  0  0  0  0  0  0
   -3.7530    4.1573   -1.3935 H   0  0  0  0  0  0  0  0  0  0  0  0
   -4.1538   -4.8871    0.8263 H   0  0  0  0  0  0  0  0  0  0  0  0
   -5.6204   -4.1581    1.5181 H   0  0  0  0  0  0  0  0  0  0  0  0
   -3.9913   -3.6508    2.0935 H   0  0  0  0  0  0  0  0  0  0  0  0
  1 22  1  0  0  0  0
  1 77  1  0  0  0  0
  2 33  1  0  0  0  0
  2 81  1  0  0  0  0
  3 33  2  0  0  0  0
  4 35  1  0  0  0  0
  4 36  1  0  0  0  0
  5 35  2  0  0  0  0
  6  7  1  0  0  0  0
  6  9  1  0  0  0  0
  6 11  1  0  0  0  0
  6 20  1  0  0  0  0
  7  8  1  0  0  0  0
  7 15  1  0  0  0  0
  7 37  1  0  0  0  0
  8 10  1  0  0  0  0
  8 17  1  0  0  0  0
  8 24  1  0  0  0  0
  9 13  1  0  0  0  0
  9 18  1  0  0  0  0
  9 26  1  0  0  0  0
 10 12  1  0  0  0  0
 10 14  1  0  0  0  0
 10 38  1  0  0  0  0
 11 12  1  0  0  0  0
 11 39  1  0  0  0  0
 11 40  1  0  0  0  0
 12 41  1  0  0  0  0
 12 42  1  0  0  0  0
 13 16  1  0  0  0  0
 13 23  2  0  0  0  0
 14 22  1  0  0  0  0
 14 30  1  0  0  0  0
 14 31  1  0  0  0  0
 15 23  1  0  0  0  0
 15 43  1  0  0  0  0
 15 44  1  0  0  0  0
 16 19  1  0  0  0  0
 16 27  1  0  0  0  0
 16 45  1  0  0  0  0
 17 25  1  0  0  0  0
 17 46  1  0  0  0  0
 17 47  1  0  0  0  0
 18 21  1  0  0  0  0
 18 48  1  0  0  0  0
 18 49  1  0  0  0  0
 19 21  1  0  0  0  0
 19 28  1  0  0  0  0
 19 33  1  0  0  0  0
 20 50  1  0  0  0  0
 20 51  1  0  0  0  0
 20 52  1  0  0  0  0
 21 53  1  0  0  0  0
 21 54  1  0  0  0  0
 22 25  1  0  0  0  0
 22 55  1  0  0  0  0
 23 56  1  0  0  0  0
 24 57  1  0  0  0  0
 24 58  1  0  0  0  0
 24 59  1  0  0  0  0
 25 60  1  0  0  0  0
 25 61  1  0  0  0  0
 26 62  1  0  0  0  0
 26 63  1  0  0  0  0
 26 64  1  0  0  0  0
 27 29  1  0  0  0  0
 27 65  1  0  0  0  0
 27 66  1  0  0  0  0
 28 32  1  0  0  0  0
 28 67  1  0  0  0  0
 28 68  1  0  0  0  0
 29 32  1  0  0  0  0
 29 34  1  0  0  0  0
 29 35  1  0  0  0  0
 30 69  1  0  0  0  0
 30 70  1  0  0  0  0
 30 71  1  0  0  0  0
 31 72  1  0  0  0  0
 31 73  1  0  0  0  0
 31 74  1  0  0  0  0
 32 75  1  0  0  0  0
 32 76  1  0  0  0  0
 34 78  1  0  0  0  0
 34 79  1  0  0  0  0
 34 80  1  0  0  0  0
 36 82  1  0  0  0  0
 36 83  1  0  0  0  0
 36 84  1  0  0  0  0
M  END
> <PUBCHEM_COMPOUND_CID>
12315474

> <PUBCHEM_CONFORMER_RMSD>
0.8

> <PUBCHEM_CONFORMER_DIVERSEORDER>
1
2

> <PUBCHEM_MMFF94_PARTIAL_CHARGES>
19
1 -0.68
13 -0.28
15 0.14
16 0.14
19 0.06
2 -0.65
22 0.28
23 -0.29
29 0.06
3 -0.57
33 0.66
35 0.66
36 0.28
4 -0.43
5 -0.57
56 0.15
77 0.4
81 0.5
9 0.14

> <PUBCHEM_EFFECTIVE_ROTOR_COUNT>
5.6

> <PUBCHEM_PHARMACOPHORE_FEATURES>
12
1 1 acceptor
1 1 donor
1 2 acceptor
1 3 acceptor
1 5 acceptor
3 14 30 31 hydrophobe
3 2 3 33 anion
6 16 19 27 28 29 32 rings
6 6 7 8 10 11 12 rings
6 6 7 9 13 15 23 rings
6 8 10 14 17 22 25 rings
6 9 13 16 18 19 21 rings

> <PUBCHEM_HEAVY_ATOM_COUNT>
36

> <PUBCHEM_ATOM_DEF_STEREO_COUNT>
9

> <PUBCHEM_ATOM_UDEF_STEREO_COUNT>
0

> <PUBCHEM_BOND_DEF_STEREO_COUNT>
0

> <PUBCHEM_BOND_UDEF_STEREO_COUNT>
0

> <PUBCHEM_ISOTOPIC_ATOM_COUNT>
0

> <PUBCHEM_COMPONENT_COUNT>
1

> <PUBCHEM_CACTVS_TAUTO_COUNT>
1

> <PUBCHEM_CONFORMER_ID>
00BBEB5200000001

> <PUBCHEM_MMFF94_ENERGY>
157.7294

> <PUBCHEM_FEATURE_SELFOVERLAP>
61.007

> <PUBCHEM_SHAPE_FINGERPRINT>
10 15 17846203485200014314
10076449 9 17632588167164040092
10290309 65 18130229233438559543
11135609 12 18270414879295130603
11497681 19 16772372123668797807
11578080 2 17974003947232588293
117089 54 18123193665234584927
12166972 35 18409168818609790028
12236239 1 17240199919913838666
12422481 6 15984835813019343445
13583140 156 18341598287951936181
13631057 29 18335421300705854603
13690498 29 17386283320410264927
13782708 43 18273214184212472318
13811026 1 18272928367139765887
14068700 675 18041846241517840623
14840074 17 15913324689124535252
14856354 85 18261678155384783183
14955137 171 18059573632637304608
15021287 119 15195283135879005264
15064986 96 15769510789389482501
15183329 4 18187082849812635158
15361156 5 18202002157592201445
15510800 12 18269554013331117567
15799311 1 18334580101074512474
17349148 13 15936130746480549673
17686467 74 18261393420854864436
17980427 23 16588598495486557277
18608769 82 17774999124664044558
18927931 339 18411418436637623951
19377110 9 17531247231949898664
19611394 137 18271248343342278698
19958102 18 18335136453773790783
21033648 29 17703493429016892273
21623969 137 17418375800822815518
21792961 116 17703522021880245806
22149856 69 17131562707685733898
23522609 53 13829855789668395442
23559900 14 18413384350158161137
23569914 152 13050102904684020642
23569943 247 16446136896475578906
249057 3 18333732408460426893
2838139 119 13623523563017970375
3383291 50 18270115838267163239
3418910 222 18336838605707381244
350125 39 17632856438720615232
392239 28 17704074010217154499
4015057 19 13912610506309990015
4073 2 18343587338767369146
46194498 28 18342455997912909464
484989 97 18131361808642094102
49967989 163 17823718519114342514
5104073 3 17346038845090634762
59755656 215 18272649034750433823
6086070 43 16732971038292862132
999808 66 17917440821340022942

> <PUBCHEM_SHAPE_MULTIPOLES>
711.52
16.82
2.89
1.89
13.18
0.42
0.06
5.87
0.86
-5.01
-0.51
0.41
0.2
1.96

> <PUBCHEM_SHAPE_SELFOVERLAP>
1518.944

> <PUBCHEM_SHAPE_VOLUME>
388.1

> <PUBCHEM_COORDINATE_TYPE>
2
5
10

$$$$
