5318319
  -OEChem-02172602373D

 31 32  0     0  0  0  0  0  0999 V2000
   -0.0144    0.3931   -0.1243 O   0  0  0  0  0  0  0  0  0  0  0  0
   -6.1558   -0.5654   -0.8666 O   0  0  0  0  0  0  0  0  0  0  0  0
    6.2375    0.4141   -0.3032 O   0  0  0  0  0  0  0  0  0  0  0  0
    0.7486   -0.7161    0.3484 C   0  0  0  0  0  0  0  0  0  0  0  0
    2.2085   -0.4157    0.1751 C   0  0  0  0  0  0  0  0  0  0  0  0
   -1.3683    0.3039   -0.0180 C   0  0  0  0  0  0  0  0  0  0  0  0
   -4.1437    0.1221    0.1989 C   0  0  0  0  0  0  0  0  0  0  0  0
   -2.1730    1.3536   -0.4613 C   0  0  0  0  0  0  0  0  0  0  0  0
   -1.9515   -0.8369    0.5338 C   0  0  0  0  0  0  0  0  0  0  0  0
   -3.5606    1.2627   -0.3528 C   0  0  0  0  0  0  0  0  0  0  0  0
   -3.3392   -0.9278    0.6422 C   0  0  0  0  0  0  0  0  0  0  0  0
    2.9079    0.2128    1.1988 C   0  0  0  0  0  0  0  0  0  0  0  0
    2.8478   -0.7688   -1.0079 C   0  0  0  0  0  0  0  0  0  0  0  0
   -5.6271    0.0248    0.3147 C   0  0  0  0  0  0  0  0  0  0  0  0
    4.2648    0.4923    1.0376 C   0  0  0  0  0  0  0  0  0  0  0  0
    4.2050   -0.4895   -1.1691 C   0  0  0  0  0  0  0  0  0  0  0  0
    4.9135    0.1410   -0.1463 C   0  0  0  0  0  0  0  0  0  0  0  0
    0.5584   -0.8962    1.4149 H   0  0  0  0  0  0  0  0  0  0  0  0
    0.5068   -1.6247   -0.2189 H   0  0  0  0  0  0  0  0  0  0  0  0
   -1.7243    2.2444   -0.8924 H   0  0  0  0  0  0  0  0  0  0  0  0
   -1.3906   -1.6914    0.8958 H   0  0  0  0  0  0  0  0  0  0  0  0
   -4.1767    2.0864   -0.7034 H   0  0  0  0  0  0  0  0  0  0  0  0
   -3.7831   -1.8222    1.0715 H   0  0  0  0  0  0  0  0  0  0  0  0
    2.4125    0.4932    2.1243 H   0  0  0  0  0  0  0  0  0  0  0  0
    2.3052   -1.2581   -1.8122 H   0  0  0  0  0  0  0  0  0  0  0  0
   -5.9230   -0.5849    1.1754 H   0  0  0  0  0  0  0  0  0  0  0  0
   -6.0838    1.0114    0.4453 H   0  0  0  0  0  0  0  0  0  0  0  0
    4.8053    0.9845    1.8416 H   0  0  0  0  0  0  0  0  0  0  0  0
    4.7045   -0.7649   -2.0940 H   0  0  0  0  0  0  0  0  0  0  0  0
   -5.6508   -1.3748   -1.0555 H   0  0  0  0  0  0  0  0  0  0  0  0
    6.5666    0.8511    0.5010 H   0  0  0  0  0  0  0  0  0  0  0  0
  1  4  1  0  0  0  0
  1  6  1  0  0  0  0
  2 14  1  0  0  0  0
  2 30  1  0  0  0  0
  3 17  1  0  0  0  0
  3 31  1  0  0  0  0
  4  5  1  0  0  0  0
  4 18  1  0  0  0  0
  4 19  1  0  0  0  0
  5 12  2  0  0  0  0
  5 13  1  0  0  0  0
  6  8  2  0  0  0  0
  6  9  1  0  0  0  0
  7 10  2  0  0  0  0
  7 11  1  0  0  0  0
  7 14  1  0  0  0  0
  8 10  1  0  0  0  0
  8 20  1  0  0  0  0
  9 11  2  0  0  0  0
  9 21  1  0  0  0  0
 10 22  1  0  0  0  0
 11 23  1  0  0  0  0
 12 15  1  0  0  0  0
 12 24  1  0  0  0  0
 13 16  2  0  0  0  0
 13 25  1  0  0  0  0
 14 26  1  0  0  0  0
 14 27  1  0  0  0  0
 15 17  2  0  0  0  0
 15 28  1  0  0  0  0
 16 17  1  0  0  0  0
 16 29  1  0  0  0  0
M  END
> <PUBCHEM_COMPOUND_CID>
5318319

> <PUBCHEM_CONFORMER_RMSD>
0.6

> <PUBCHEM_CONFORMER_DIVERSEORDER>
1
28
38
19
6
23
2
26
18
5
24
16
43
37
4
42
31
12
13
14
3
8
25
29
7
39
9
20
21
41
15
27
34
32
22
33
17
35
10
11
36
30
40

> <PUBCHEM_MMFF94_PARTIAL_CHARGES>
27
1 -0.36
10 -0.15
11 -0.15
12 -0.15
13 -0.15
14 0.42
15 -0.15
16 -0.15
17 0.08
2 -0.68
20 0.15
21 0.15
22 0.15
23 0.15
24 0.15
25 0.15
28 0.15
29 0.15
3 -0.53
30 0.4
31 0.45
4 0.42
5 -0.14
6 0.08
7 -0.14
8 -0.15
9 -0.15

> <PUBCHEM_EFFECTIVE_ROTOR_COUNT>
4

> <PUBCHEM_PHARMACOPHORE_FEATURES>
6
1 1 acceptor
1 2 acceptor
1 2 donor
1 3 donor
6 5 12 13 15 16 17 rings
6 6 7 8 9 10 11 rings

> <PUBCHEM_HEAVY_ATOM_COUNT>
17

> <PUBCHEM_ATOM_DEF_STEREO_COUNT>
0

> <PUBCHEM_ATOM_UDEF_STEREO_COUNT>
0

> <PUBCHEM_BOND_DEF_STEREO_COUNT>
0

> <PUBCHEM_BOND_UDEF_STEREO_COUNT>
0

> <PUBCHEM_ISOTOPIC_ATOM_COUNT>
0

> <PUBCHEM_COMPONENT_COUNT>
1

> <PUBCHEM_CACTVS_TAUTO_COUNT>
2

> <PUBCHEM_CONFORMER_ID>
005126AF00000001

> <PUBCHEM_MMFF94_ENERGY>
51.7203

> <PUBCHEM_FEATURE_SELFOVERLAP>
30.446

> <PUBCHEM_SHAPE_FINGERPRINT>
10354089 29 16057161709606454098
10366900 7 18409448089782254001
10968037 39 18113620101557869023
11287383 113 17847059999513647962
11315181 36 17530971292906685024
12107183 9 16013502116970352104
12236239 1 16660361480505757619
12390115 104 18267311920122298961
12730499 353 17846500344364820630
12815109 37 16587740945130684029
13167372 99 15140950717500682199
13533116 47 17023172804438335706
14123238 8 18333731312436092377
1420 363 18342178877716038563
14251718 22 18130788966666489095
14386348 63 18272937119718398290
17834072 33 16415476069061276415
17834076 25 18040154019612188722
17844677 252 17346604075223290817
19489759 90 18113899351541092761
200 152 16487255452334613979
20279233 1 18342182158744109042
20645477 56 18410573989699717043
20645477 70 17489032552733574814
21033648 29 17774427313618455873
21065198 48 17095516241408619296
21150785 3 16660358221638754391
221357 26 17561083583702726264
2297311 6 18411990143354238925
23402539 116 12901547966317640787
23536379 177 16559035969706099459
23557571 272 18410578348901969428
23559900 14 18188207718848426265
29717793 49 17167861937737234430
300161 21 16660360402469018210
3268164 11 18261664909647139629
34797466 226 18340499931966061156
3545911 37 17775284975969719574
5104073 3 18115872893250615665
522135 26 16272209674287630586
5281201 14 17988932132809528076
542803 24 15985106301490615083
67856867 119 16878517859011118548

> <PUBCHEM_SHAPE_MULTIPOLES>
332.24
14.23
1.06
1.02
0.92
0.15
0.03
0.64
1.37
0.79
0.02
-0.86
-0.07
0.35

> <PUBCHEM_SHAPE_SELFOVERLAP>
708.64

> <PUBCHEM_SHAPE_VOLUME>
184.9

> <PUBCHEM_COORDINATE_TYPE>
2
5
10

$$$$
