92278
  -OEChem-02172602373D

 41 42  0     1  0  0  0  0  0999 V2000
   -7.7411    0.6269   -0.2238 O   0  5  0  0  0  0  0  0  0  0  0  0
   -7.5294   -1.5201    0.1818 O   0  0  0  0  0  0  0  0  0  0  0  0
    4.5921    0.8319    0.3622 N   0  0  3  0  0  0  0  0  0  0  0  0
   -0.9746    0.3495    0.7143 N   0  0  0  0  0  0  0  0  0  0  0  0
   -1.4546    0.0889   -0.4140 N   0  0  0  0  0  0  0  0  0  0  0  0
   -7.0308   -0.3942   -0.0593 N   0  3  0  0  0  0  0  0  0  0  0  0
    7.0327   -3.2958   -0.3861 N   0  0  0  0  0  0  0  0  0  0  0  0
    5.4432   -0.3244    0.5610 C   0  0  0  0  0  0  0  0  0  0  0  0
    5.2011    2.1176    0.0850 C   0  0  0  0  0  0  0  0  0  0  0  0
    3.1897    0.7102    0.4508 C   0  0  0  0  0  0  0  0  0  0  0  0
    5.5070   -1.1760   -0.7025 C   0  0  0  0  0  0  0  0  0  0  0  0
    2.3798    1.8315    0.2714 C   0  0  0  0  0  0  0  0  0  0  0  0
    2.6128   -0.5312    0.7182 C   0  0  0  0  0  0  0  0  0  0  0  0
    5.1763    2.4276   -1.4021 C   0  0  0  0  0  0  0  0  0  0  0  0
    0.9929    1.7113    0.3591 C   0  0  0  0  0  0  0  0  0  0  0  0
    1.2259   -0.6515    0.8059 C   0  0  0  0  0  0  0  0  0  0  0  0
    0.4159    0.4698    0.6263 C   0  0  0  0  0  0  0  0  0  0  0  0
    6.3600   -2.3605   -0.5244 C   0  0  0  0  0  0  0  0  0  0  0  0
   -2.8520   -0.0322   -0.3251 C   0  0  0  0  0  0  0  0  0  0  0  0
   -3.6551    1.0897   -0.5048 C   0  0  0  0  0  0  0  0  0  0  0  0
   -3.4221   -1.2731   -0.0582 C   0  0  0  0  0  0  0  0  0  0  0  0
   -5.6189   -0.2720   -0.1491 C   0  0  0  0  0  0  0  0  0  0  0  0
   -5.0420    0.9695   -0.4166 C   0  0  0  0  0  0  0  0  0  0  0  0
   -4.8089   -1.3933    0.0300 C   0  0  0  0  0  0  0  0  0  0  0  0
    5.1452   -0.9098    1.4403 H   0  0  0  0  0  0  0  0  0  0  0  0
    6.4637    0.0019    0.8053 H   0  0  0  0  0  0  0  0  0  0  0  0
    4.7546    2.9278    0.6726 H   0  0  0  0  0  0  0  0  0  0  0  0
    6.2517    2.1111    0.4028 H   0  0  0  0  0  0  0  0  0  0  0  0
    5.9084   -0.5798   -1.5300 H   0  0  0  0  0  0  0  0  0  0  0  0
    4.5127   -1.5019   -1.0241 H   0  0  0  0  0  0  0  0  0  0  0  0
    2.7637    2.8233    0.0609 H   0  0  0  0  0  0  0  0  0  0  0  0
    3.1847   -1.4392    0.8738 H   0  0  0  0  0  0  0  0  0  0  0  0
    5.7586    1.6939   -1.9678 H   0  0  0  0  0  0  0  0  0  0  0  0
    4.1646    2.4344   -1.8168 H   0  0  0  0  0  0  0  0  0  0  0  0
    5.6197    3.4118   -1.5857 H   0  0  0  0  0  0  0  0  0  0  0  0
    0.3693    2.5904    0.2183 H   0  0  0  0  0  0  0  0  0  0  0  0
    0.7849   -1.6225    1.0165 H   0  0  0  0  0  0  0  0  0  0  0  0
   -3.2135    2.0603   -0.7143 H   0  0  0  0  0  0  0  0  0  0  0  0
   -2.7979   -2.1517    0.0819 H   0  0  0  0  0  0  0  0  0  0  0  0
   -5.6415    1.8644   -0.5620 H   0  0  0  0  0  0  0  0  0  0  0  0
   -5.2232   -2.3762    0.2396 H   0  0  0  0  0  0  0  0  0  0  0  0
  1  6  1  0  0  0  0
  2  6  2  0  0  0  0
  3  8  1  0  0  0  0
  3  9  1  0  0  0  0
  3 10  1  0  0  0  0
  4  5  2  0  0  0  0
  4 17  1  0  0  0  0
  5 19  1  0  0  0  0
  6 22  1  0  0  0  0
  7 18  3  0  0  0  0
  8 11  1  0  0  0  0
  8 25  1  0  0  0  0
  8 26  1  0  0  0  0
  9 14  1  0  0  0  0
  9 27  1  0  0  0  0
  9 28  1  0  0  0  0
 10 12  2  0  0  0  0
 10 13  1  0  0  0  0
 11 18  1  0  0  0  0
 11 29  1  0  0  0  0
 11 30  1  0  0  0  0
 12 15  1  0  0  0  0
 12 31  1  0  0  0  0
 13 16  2  0  0  0  0
 13 32  1  0  0  0  0
 14 33  1  0  0  0  0
 14 34  1  0  0  0  0
 14 35  1  0  0  0  0
 15 17  2  0  0  0  0
 15 36  1  0  0  0  0
 16 17  1  0  0  0  0
 16 37  1  0  0  0  0
 19 20  2  0  0  0  0
 19 21  1  0  0  0  0
 20 23  1  0  0  0  0
 20 38  1  0  0  0  0
 21 24  2  0  0  0  0
 21 39  1  0  0  0  0
 22 23  2  0  0  0  0
 22 24  1  0  0  0  0
 23 40  1  0  0  0  0
 24 41  1  0  0  0  0
M  CHG  2   1  -1   6   1
M  END
> <PUBCHEM_COMPOUND_CID>
92278

> <PUBCHEM_CONFORMER_RMSD>
0.8

> <PUBCHEM_CONFORMER_DIVERSEORDER>
2
21
19
4
22
15
27
13
5
10
8
11
18
23
24
29
20
16
17
3
6
25
28
12
26
7
1
14
9

> <PUBCHEM_MMFF94_PARTIAL_CHARGES>
31
1 -0.52
10 0.1
11 0.2
12 -0.15
13 -0.15
15 -0.15
16 -0.15
17 0.18
18 0.36
19 0.18
2 -0.52
20 -0.15
21 -0.15
22 0.13
23 -0.15
24 -0.15
3 -0.84
31 0.15
32 0.15
36 0.15
37 0.15
38 0.15
39 0.15
4 -0.18
40 0.15
41 0.15
5 -0.18
6 0.91
7 -0.56
8 0.37
9 0.37

> <PUBCHEM_EFFECTIVE_ROTOR_COUNT>
7

> <PUBCHEM_PHARMACOPHORE_FEATURES>
7
1 1 acceptor
1 1 anion
1 2 acceptor
1 3 cation
1 7 acceptor
6 10 12 13 15 16 17 rings
6 19 20 21 22 23 24 rings

> <PUBCHEM_HEAVY_ATOM_COUNT>
24

> <PUBCHEM_ATOM_DEF_STEREO_COUNT>
0

> <PUBCHEM_ATOM_UDEF_STEREO_COUNT>
0

> <PUBCHEM_BOND_DEF_STEREO_COUNT>
0

> <PUBCHEM_BOND_UDEF_STEREO_COUNT>
0

> <PUBCHEM_ISOTOPIC_ATOM_COUNT>
0

> <PUBCHEM_COMPONENT_COUNT>
1

> <PUBCHEM_CACTVS_TAUTO_COUNT>
1

> <PUBCHEM_CONFORMER_ID>
0001687600000002

> <PUBCHEM_MMFF94_ENERGY>
75.6748

> <PUBCHEM_FEATURE_SELFOVERLAP>
35.602

> <PUBCHEM_SHAPE_FINGERPRINT>
10299344 5 18412265060553795841
10411042 1 18268711611735880464
10670039 82 15357977799160026630
11524674 6 16702022024139552399
11719270 70 17775284945810536318
11796584 16 16558750182608493892
12236239 1 18272933834348271329
13533116 47 18201718466591486808
13685833 64 18272932700350278298
14251764 18 18342739663517418249
14341114 176 18408885161483237489
14933364 13 18334574655388120917
15183329 4 17917722308979959284
17844677 252 18335423447936249468
20567600 234 8286201630573302070
20645477 70 18408884041029289496
21130935 74 18201437025663732883
21267235 1 18409168805618684985
21344244 181 18335144189358284866
21641784 216 15647048218958250556
221357 26 18408037416206119880
22956985 138 16698949799736341246
2297311 6 18260546710933292909
23522609 53 18057352606544169081
23559900 14 18339635767714500113
23569943 247 18118966884517338034
28498 318 18342454812205887071
29717793 49 18412826889178030300
3004659 81 18408039594424023402
328311 84 18408889529533646947
33532 11 18343581854495461343
34797466 226 17821730572025740484
3545911 37 18334852844851954833
4073 2 17823137985126110842
46194498 28 18186801371068426580
465052 167 18130788932908254606
5718773 13 18125722284929057678
59755656 215 18187080642030906483
6438161 24 18335415721997076434
70251023 43 18337954481565619840

> <PUBCHEM_SHAPE_MULTIPOLES>
457.27
21.69
2.47
0.88
18.23
0.76
-0.08
8.73
-3.92
-5.73
-0.58
-0.81
-0.16
0.5

> <PUBCHEM_SHAPE_SELFOVERLAP>
962.745

> <PUBCHEM_SHAPE_VOLUME>
256.5

> <PUBCHEM_COORDINATE_TYPE>
2
5
10

$$$$
