643162
  -OEChem-02172602383D

 23 24  0     0  0  0  0  0  0999 V2000
   -4.6757    0.3812    1.3794 O   0  0  0  0  0  0  0  0  0  0  0  0
    4.2068   -0.6547    0.5822 O   0  0  0  0  0  0  0  0  0  0  0  0
   -4.4909    0.3298   -0.8830 O   0  0  0  0  0  0  0  0  0  0  0  0
   -0.3561   -0.6323   -0.4568 N   0  0  0  0  0  0  0  0  0  0  0  0
    0.0965   -1.8880   -0.2544 N   0  0  0  0  0  0  0  0  0  0  0  0
    0.8388    1.4916   -0.3883 N   0  0  0  0  0  0  0  0  0  0  0  0
    3.1904    1.3784    0.1498 N   0  0  0  0  0  0  0  0  0  0  0  0
   -1.7148   -0.3133   -0.7777 C   0  0  0  0  0  0  0  0  0  0  0  0
    0.7293    0.2078   -0.2971 C   0  0  0  0  0  0  0  0  0  0  0  0
    1.9243   -0.6170    0.0419 C   0  0  0  0  0  0  0  0  0  0  0  0
   -2.5199   -0.0718    0.4939 C   0  0  0  0  0  0  0  0  0  0  0  0
    1.4344   -1.8659    0.0571 C   0  0  0  0  0  0  0  0  0  0  0  0
    3.2188    0.0059    0.2877 C   0  0  0  0  0  0  0  0  0  0  0  0
   -3.9777    0.2323    0.2228 C   0  0  0  0  0  0  0  0  0  0  0  0
    2.0957    2.0160   -0.1575 C   0  0  0  0  0  0  0  0  0  0  0  0
   -1.7521    0.5757   -1.4191 H   0  0  0  0  0  0  0  0  0  0  0  0
   -2.1667   -1.1267   -1.3592 H   0  0  0  0  0  0  0  0  0  0  0  0
   -2.0954    0.7731    1.0487 H   0  0  0  0  0  0  0  0  0  0  0  0
   -2.4755   -0.9612    1.1336 H   0  0  0  0  0  0  0  0  0  0  0  0
   -0.4990   -2.6745   -0.0342 H   0  0  0  0  0  0  0  0  0  0  0  0
    1.9407   -2.7888    0.2898 H   0  0  0  0  0  0  0  0  0  0  0  0
    2.1657    3.1128   -0.2466 H   0  0  0  0  0  0  0  0  0  0  0  0
   -5.6227    0.5750    1.2121 H   0  0  0  0  0  0  0  0  0  0  0  0
  1 14  1  0  0  0  0
  1 23  1  0  0  0  0
  2 13  2  0  0  0  0
  3 14  2  0  0  0  0
  4  5  1  0  0  0  0
  4  8  1  0  0  0  0
  4  9  1  0  0  0  0
  5 12  1  0  0  0  0
  5 20  1  0  0  0  0
  6  9  2  0  0  0  0
  6 15  1  0  0  0  0
  7 13  1  0  0  0  0
  7 15  2  0  0  0  0
  8 11  1  0  0  0  0
  8 16  1  0  0  0  0
  8 17  1  0  0  0  0
  9 10  1  0  0  0  0
 10 12  2  0  0  0  0
 10 13  1  0  0  0  0
 11 14  1  0  0  0  0
 11 18  1  0  0  0  0
 11 19  1  0  0  0  0
 12 21  1  0  0  0  0
 15 22  1  0  0  0  0
M  END
> <PUBCHEM_COMPOUND_CID>
643162

> <PUBCHEM_CONFORMER_RMSD>
0.6

> <PUBCHEM_CONFORMER_DIVERSEORDER>
1
14
16
12
15
9
3
5
13
8
11
7
6
2
10
4

> <PUBCHEM_MMFF94_PARTIAL_CHARGES>
19
1 -0.65
10 0.03
11 0.06
12 -0.05
13 0.77
14 0.66
15 0.6
2 -0.57
20 0.4
21 0.15
22 0.06
23 0.5
3 -0.57
4 -0.42
5 -0.5
6 -0.66
7 -0.66
8 0.37
9 0.49

> <PUBCHEM_EFFECTIVE_ROTOR_COUNT>
3

> <PUBCHEM_PHARMACOPHORE_FEATURES>
9
1 1 acceptor
1 2 acceptor
1 3 acceptor
1 5 donor
1 7 donor
3 1 3 14 anion
3 4 6 9 cation
5 4 5 9 10 12 rings
6 6 7 9 10 13 15 rings

> <PUBCHEM_HEAVY_ATOM_COUNT>
15

> <PUBCHEM_ATOM_DEF_STEREO_COUNT>
0

> <PUBCHEM_ATOM_UDEF_STEREO_COUNT>
0

> <PUBCHEM_BOND_DEF_STEREO_COUNT>
0

> <PUBCHEM_BOND_UDEF_STEREO_COUNT>
0

> <PUBCHEM_ISOTOPIC_ATOM_COUNT>
0

> <PUBCHEM_COMPONENT_COUNT>
1

> <PUBCHEM_CACTVS_TAUTO_COUNT>
5

> <PUBCHEM_CONFORMER_ID>
0009D05A00000001

> <PUBCHEM_MMFF94_ENERGY>
54.2324

> <PUBCHEM_FEATURE_SELFOVERLAP>
45.846

> <PUBCHEM_SHAPE_FINGERPRINT>
10219947 1 18408321081594474422
10465860 228 18200884988926395563
10980938 120 18411980247770428175
11471102 20 18409442587871170628
12251169 10 18407761439093119995
12346645 6 18272932687412681190
13922767 16 18410289211682191605
14251717 144 18412258428644411839
15775835 57 18131354145739663433
16945 1 18336250298260749662
17844478 74 17676480640278007700
18186145 218 18342461460372182229
19107657 47 18334008398151587241
20279233 1 17749392546978220243
20645477 70 18264478504210857967
21501502 16 18192709175265919726
21524375 3 18272930561451231903
21637258 2 15140946354119858130
22854114 111 18411139155819443693
23402539 116 15267055922040358177
2838139 119 15337971218508651880
293599 30 18264776622344096052
53655031 270 18343582915130356680
602551 16 15936701453171301593

> <PUBCHEM_SHAPE_MULTIPOLES>
271.16
7.95
1.69
0.85
7.66
0.04
-0.08
1.53
-1.86
-1.52
0.11
0.7
0.03
-0.25

> <PUBCHEM_SHAPE_SELFOVERLAP>
579.086

> <PUBCHEM_SHAPE_VOLUME>
147.6

> <PUBCHEM_COORDINATE_TYPE>
2
5
10

$$$$
