92730
  -OEChem-02172602383D

 54 57  0     1  0  0  0  0  0999 V2000
    0.3512   -2.7171   -0.4141 O   0  0  0  0  0  0  0  0  0  0  0  0
   -5.5371   -0.0364    0.7317 O   0  0  0  0  0  0  0  0  0  0  0  0
    6.0972   -0.0765   -0.9556 O   0  0  0  0  0  0  0  0  0  0  0  0
   -1.4553    1.0285   -0.4223 C   0  0  2  0  0  0  0  0  0  0  0  0
   -2.3349   -0.1376    0.0691 C   0  0  2  0  0  0  0  0  0  0  0  0
   -0.0650    1.0344    0.2196 C   0  0  1  0  0  0  0  0  0  0  0  0
    0.6795   -0.2993   -0.1311 C   0  0  1  0  0  0  0  0  0  0  0  0
    2.1473   -0.3384    0.4852 C   0  0  2  0  0  0  0  0  0  0  0  0
   -1.6516   -1.4362   -0.3616 C   0  0  0  0  0  0  0  0  0  0  0  0
   -3.6382    0.1895   -0.6931 C   0  0  2  0  0  0  0  0  0  0  0  0
   -0.2110   -1.5480    0.1796 C   0  0  1  0  0  0  0  0  0  0  0  0
   -2.3564    2.2472   -0.2448 C   0  0  0  0  0  0  0  0  0  0  0  0
    0.7534    2.2426   -0.2497 C   0  0  0  0  0  0  0  0  0  0  0  0
   -3.7599    1.7236   -0.5963 C   0  0  0  0  0  0  0  0  0  0  0  0
    2.8792    0.9742    0.1546 C   0  0  0  0  0  0  0  0  0  0  0  0
   -2.5718   -0.1511    1.6012 C   0  0  0  0  0  0  0  0  0  0  0  0
    2.1253    2.2570    0.4054 C   0  0  0  0  0  0  0  0  0  0  0  0
    2.9364   -1.5387   -0.1166 C   0  0  0  0  0  0  0  0  0  0  0  0
    2.1121   -0.4965    2.0229 C   0  0  0  0  0  0  0  0  0  0  0  0
   -4.8533   -0.5136   -0.1726 C   0  0  0  0  0  0  0  0  0  0  0  0
    4.4424   -1.4582    0.0828 C   0  0  0  0  0  0  0  0  0  0  0  0
    4.1354    1.0455   -0.3172 C   0  0  0  0  0  0  0  0  0  0  0  0
    4.9736   -0.1636   -0.4653 C   0  0  0  0  0  0  0  0  0  0  0  0
   -5.1986   -1.8312   -0.8119 C   0  0  0  0  0  0  0  0  0  0  0  0
   -1.3015    0.9177   -1.5090 H   0  0  0  0  0  0  0  0  0  0  0  0
   -0.1760    1.1178    1.3059 H   0  0  0  0  0  0  0  0  0  0  0  0
    0.8194   -0.2991   -1.2246 H   0  0  0  0  0  0  0  0  0  0  0  0
   -1.6262   -1.5122   -1.4575 H   0  0  0  0  0  0  0  0  0  0  0  0
   -2.2255   -2.3091   -0.0280 H   0  0  0  0  0  0  0  0  0  0  0  0
   -3.5317   -0.0643   -1.7569 H   0  0  0  0  0  0  0  0  0  0  0  0
   -0.2433   -1.7189    1.2597 H   0  0  0  0  0  0  0  0  0  0  0  0
   -2.0668    3.0737   -0.9016 H   0  0  0  0  0  0  0  0  0  0  0  0
   -2.3317    2.6180    0.7859 H   0  0  0  0  0  0  0  0  0  0  0  0
    0.2363    3.1746    0.0062 H   0  0  0  0  0  0  0  0  0  0  0  0
    0.8609    2.2272   -1.3421 H   0  0  0  0  0  0  0  0  0  0  0  0
   -4.4823    2.0697    0.1501 H   0  0  0  0  0  0  0  0  0  0  0  0
   -4.0864    2.1300   -1.5610 H   0  0  0  0  0  0  0  0  0  0  0  0
   -1.6418   -0.2105    2.1726 H   0  0  0  0  0  0  0  0  0  0  0  0
   -3.1016    0.7405    1.9511 H   0  0  0  0  0  0  0  0  0  0  0  0
   -3.1696   -1.0221    1.8937 H   0  0  0  0  0  0  0  0  0  0  0  0
    2.0170    2.4025    1.4874 H   0  0  0  0  0  0  0  0  0  0  0  0
    2.6808    3.1274    0.0347 H   0  0  0  0  0  0  0  0  0  0  0  0
    2.7403   -1.5996   -1.1961 H   0  0  0  0  0  0  0  0  0  0  0  0
    2.6002   -2.4835    0.3241 H   0  0  0  0  0  0  0  0  0  0  0  0
    3.1119   -0.3934    2.4607 H   0  0  0  0  0  0  0  0  0  0  0  0
    1.4782    0.2537    2.5052 H   0  0  0  0  0  0  0  0  0  0  0  0
    1.7354   -1.4817    2.3171 H   0  0  0  0  0  0  0  0  0  0  0  0
    4.9202   -2.2858   -0.4534 H   0  0  0  0  0  0  0  0  0  0  0  0
    4.7184   -1.5334    1.1393 H   0  0  0  0  0  0  0  0  0  0  0  0
   -0.1927   -3.4765   -0.1438 H   0  0  0  0  0  0  0  0  0  0  0  0
    4.6068    1.9939   -0.5529 H   0  0  0  0  0  0  0  0  0  0  0  0
   -5.2949   -1.7050   -1.8932 H   0  0  0  0  0  0  0  0  0  0  0  0
   -4.4328   -2.5740   -0.5845 H   0  0  0  0  0  0  0  0  0  0  0  0
   -6.1565   -2.1854   -0.4199 H   0  0  0  0  0  0  0  0  0  0  0  0
  1 11  1  0  0  0  0
  1 50  1  0  0  0  0
  2 20  2  0  0  0  0
  3 23  2  0  0  0  0
  4  5  1  0  0  0  0
  4  6  1  0  0  0  0
  4 12  1  0  0  0  0
  4 25  1  0  0  0  0
  5  9  1  0  0  0  0
  5 10  1  0  0  0  0
  5 16  1  0  0  0  0
  6  7  1  0  0  0  0
  6 13  1  0  0  0  0
  6 26  1  0  0  0  0
  7  8  1  0  0  0  0
  7 11  1  0  0  0  0
  7 27  1  0  0  0  0
  8 15  1  0  0  0  0
  8 18  1  0  0  0  0
  8 19  1  0  0  0  0
  9 11  1  0  0  0  0
  9 28  1  0  0  0  0
  9 29  1  0  0  0  0
 10 14  1  0  0  0  0
 10 20  1  0  0  0  0
 10 30  1  0  0  0  0
 11 31  1  0  0  0  0
 12 14  1  0  0  0  0
 12 32  1  0  0  0  0
 12 33  1  0  0  0  0
 13 17  1  0  0  0  0
 13 34  1  0  0  0  0
 13 35  1  0  0  0  0
 14 36  1  0  0  0  0
 14 37  1  0  0  0  0
 15 17  1  0  0  0  0
 15 22  2  0  0  0  0
 16 38  1  0  0  0  0
 16 39  1  0  0  0  0
 16 40  1  0  0  0  0
 17 41  1  0  0  0  0
 17 42  1  0  0  0  0
 18 21  1  0  0  0  0
 18 43  1  0  0  0  0
 18 44  1  0  0  0  0
 19 45  1  0  0  0  0
 19 46  1  0  0  0  0
 19 47  1  0  0  0  0
 20 24  1  0  0  0  0
 21 23  1  0  0  0  0
 21 48  1  0  0  0  0
 21 49  1  0  0  0  0
 22 23  1  0  0  0  0
 22 51  1  0  0  0  0
 24 52  1  0  0  0  0
 24 53  1  0  0  0  0
 24 54  1  0  0  0  0
M  END
> <PUBCHEM_COMPOUND_CID>
92730

> <PUBCHEM_CONFORMER_RMSD>
0.6

> <PUBCHEM_CONFORMER_DIVERSEORDER>
1
2

> <PUBCHEM_MMFF94_PARTIAL_CHARGES>
15
1 -0.68
10 0.06
11 0.28
15 -0.28
17 0.14
2 -0.57
20 0.45
21 0.06
22 -0.14
23 0.49
24 0.06
3 -0.57
50 0.4
51 0.15
8 0.14

> <PUBCHEM_EFFECTIVE_ROTOR_COUNT>
2.8

> <PUBCHEM_PHARMACOPHORE_FEATURES>
8
1 1 acceptor
1 1 donor
1 2 acceptor
1 3 acceptor
5 4 5 10 12 14 rings
6 4 5 6 7 9 11 rings
6 6 7 8 13 15 17 rings
6 8 15 18 21 22 23 rings

> <PUBCHEM_HEAVY_ATOM_COUNT>
24

> <PUBCHEM_ATOM_DEF_STEREO_COUNT>
7

> <PUBCHEM_ATOM_UDEF_STEREO_COUNT>
0

> <PUBCHEM_BOND_DEF_STEREO_COUNT>
0

> <PUBCHEM_BOND_UDEF_STEREO_COUNT>
0

> <PUBCHEM_ISOTOPIC_ATOM_COUNT>
0

> <PUBCHEM_COMPONENT_COUNT>
1

> <PUBCHEM_CACTVS_TAUTO_COUNT>
15

> <PUBCHEM_CONFORMER_ID>
00016A3A00000001

> <PUBCHEM_MMFF94_ENERGY>
77.5363

> <PUBCHEM_FEATURE_SELFOVERLAP>
40.692

> <PUBCHEM_SHAPE_FINGERPRINT>
10366900 7 17821727247383417249
10967382 1 18410570721008156100
11578080 2 16843027895931185650
11963148 33 18336258042093306307
12011746 2 18334857225117008789
12166972 35 18059858401943238393
12403259 226 18411691093587936101
12403259 415 18342448240621535889
12553582 1 18339065056021750253
12592029 89 18411136913704311547
12788726 201 18263076635101033337
13140716 1 18338800151514281347
13224815 77 18187081728588755009
13583140 156 16732986444060632961
13862211 1 18410568492009956182
14787075 74 18333733519885901643
14790565 3 18338806623555645244
15099037 51 18412266142563950486
15196674 1 18409727326912399252
1601671 61 18410009893005962332
16752209 62 18410565159125845128
16945 1 18339630213588218825
17349148 13 17917993897189751087
18186145 218 17346022433529661227
18681886 176 18411412951442283816
19591789 44 18410570665147142655
200 152 18202562873698353025
20028762 73 18131062783812295239
20645477 70 18335977661968258820
21033648 29 18335972129950414753
21267235 1 18410863165325903662
21279426 13 18265896843886929020
221357 26 18411134736113570885
22182313 1 18190716756848590972
22393880 68 18335128770198214749
23402539 116 18342171154884682341
23522609 53 18195841576351206441
23559900 14 18340197574673928865
2871803 45 18113893879325704209
296302 2 13479134588099112856
3004659 81 18188493468019190534
335352 9 18411982476752895127
34934 24 18337947995969784664
350125 39 18411140216914008989
3886686 26 10586761383742851012
4214541 1 18410572855786432269
4280585 95 17405148426933826998
465052 167 18341617057180910183
5104073 3 18409726223127092353
59755656 215 18409728435557131503
7495541 125 17704067434442863122
9709674 26 18334293218897122641

> <PUBCHEM_SHAPE_MULTIPOLES>
476.3
11.07
2.36
1.06
0.01
0.26
0.46
-2.12
-2.15
-0.26
-0.32
0.02
-0.13
-0.1

> <PUBCHEM_SHAPE_SELFOVERLAP>
1020.615

> <PUBCHEM_SHAPE_VOLUME>
262.3

> <PUBCHEM_COORDINATE_TYPE>
2
5
10

$$$$
